version 3
run MultiMec-0-20250408-10:15:27-1444
attr configname MultiMec
attr datetime 20250408-10:15:27
attr datetimef 20250408-101527
attr experiment MultiMec
attr inifile omnetpp.ini
attr iterationvars "$u=0, $numRbs=50, $numUEs=3"
attr iterationvarsd u=0/numRbs=50/numUEs=3
attr iterationvarsf u=0,numRbs=50,numUEs=3-
attr measurement "$u=0, $numRbs=50, $numUEs=3"
attr network multimechost.singleMecHost
attr processid 1444
attr repetition 0
attr replication #0
attr resultdir results
attr runnumber 0
attr seedset 0
itervar numRbs 50
itervar numUEs 3
itervar u 0
config image-path ../../../../inet-4.4.1/images:../../../../simu5g-1.2.1/images
config sim-time-limit 40s
config network multimechost.singleMecHost
config *.carrierAggregation.numComponentCarriers 1
config *.carrierAggregation.componentCarrier[0].numerologyIndex 0
config *.carrierAggregation.componentCarrier[0].carrierFrequency 2GHz
config *.carrierAggregation.componentCarrier[0].numBands 50
config *.gnb1.cellularNic.numCarriers 1
config *.gnb1.cellularNic.channelModel[0].componentCarrierIndex 0
config *.ue[*].cellularNic.numCarriers 1
config *.ue[*].cellularNic.nrChannelModel[0].componentCarrierIndex 0
config *.numUe 3
config *.ue[*].macCellId 0
config *.ue[*].masterId 0
config *.ue[*].nrMacCellId 1
config *.ue[*].nrMasterId 1
config **.dynamicCellAssociation true
config **.enableHandover true
config **.mobility.constraintAreaMinZ 0m
config **.mobility.constraintAreaMaxZ 0m
config *.ue[*].mobility.initFromDisplayString false
config *.ue[*].mobility.typename LinearMobility
config *.ue[*].mobility.updateInterval 0.05s
config *.gNodeB1.mobility.initFromDisplayString true
config **.numUes 3
config **.ue[0].mobility.initialX 120m
config **.ue[0].mobility.initialY 50m
config **.ue[0].mobility.initialMovementHeading 90deg
config **.ue[0].mobility.speed 1mps
config **.ue[1].mobility.initialX 110m
config **.ue[1].mobility.initialY 90m
config **.ue[1].mobility.initialMovementHeading 90deg
config **.ue[1].mobility.speed 3mps
config **.ue[2].mobility.initialX 60m
config **.ue[2].mobility.initialY 130m
config **.ue[2].mobility.initialMovementHeading 90deg
config **.ue[2].mobility.speed 2mps
config **.mobility.verbose true
config *.ue[0].numApps 2
config *.ue[0].app[0].typename DeviceApp
config *.ue[0].app[0].localPort 4500
config *.ue[0].app[0].UALCMPAddress "\"ualcmp\""
config *.ue[0].app[0].UALCMPPort 1000
config *.ue[0].app[0].appPackageSource "\"ApplicationDescriptors/WarningAlertApp.json\""
config *.ue[0].app[1].typename UEWarningAlertApp
config *.ue[0].app[1].deviceAppAddress "\"ue[\"+string(ancestorIndex(1))+\"]\""
config *.ue[0].app[1].deviceAppPort 4500
config *.ue[0].app[1].startTime 1s
config *.ue[0].app[1].stopTime 35s
config *.ue[1].numApps 2
config *.ue[1].app[0].typename DeviceApp
config *.ue[1].app[0].localPort 4500
config *.ue[1].app[0].UALCMPAddress "\"ualcmp\""
config *.ue[1].app[0].UALCMPPort 1000
config *.ue[1].app[0].appPackageSource "\"ApplicationDescriptors/WarningAlertApp.json\""
config *.ue[1].app[1].typename UEWarningAlertApp
config *.ue[1].app[1].deviceAppAddress "\"ue[\"+string(ancestorIndex(1))+\"]\""
config *.ue[1].app[1].deviceAppPort 4500
config *.ue[1].app[1].startTime 1s
config *.ue[1].app[1].stopTime 35s
config *.ue[2].numApps 2
config *.ue[2].app[0].typename DeviceApp
config *.ue[2].app[0].localPort 4500
config *.ue[2].app[0].UALCMPAddress "\"ualcmp\""
config *.ue[2].app[0].UALCMPPort 1000
config *.ue[2].app[0].appPackageSource "\"ApplicationDescriptors/WarningAlertApp.json\""
config *.ue[2].app[1].typename UEWarningAlertApp
config *.ue[2].app[1].deviceAppAddress "\"ue[\"+string(ancestorIndex(1))+\"]\""
config *.ue[2].app[1].deviceAppPort 4500
config *.ue[2].app[1].startTime 1s
config *.ue[2].app[1].stopTime 35s
config **.hasRNISupport true
config **.tcp.typename Tcp
config **.tcp.advertisedWindow 65535
config **.tcp.tcpAlgorithmClass "\"TcpReno\""
config **.tcp.sackSupport true
config **.mecHost*.virtualisationInfrastructure.ipv4.forwarding true
config *.mecHost1.maxMECApps 100
config *.mecHost1.maxRam 150MB
config *.mecHost1.maxDisk 1000MB
config *.mecHost1.maxCpuSpeed 900
config *.mecHost2.maxMECApps 100
config *.mecHost2.maxRam 40MB
config *.mecHost2.maxDisk 1000MB
config *.mecHost2.maxCpuSpeed 160
config *.coreServer1.maxMECApps 200
config *.coreServer1.maxRam 50GB
config *.coreServer1.maxDisk 500TB
config *.coreServer1.maxCpuSpeed 4000
config *.coreServer2.maxMECApps 300
config *.coreServer2.maxRam 100GB
config *.coreServer2.maxDisk 1000000GB
config *.coreServer2.maxCpuSpeed 4600
config *.coreServer3.maxMECApps 3000
config *.coreServer3.maxRam 1000GB
config *.coreServer3.maxDisk 10000000GB
config *.coreServer3.maxCpuSpeed 46000
config *.coreServer4.maxMECApps 30000
config *.coreServer4.maxRam 10000GB
config *.coreServer4.maxDisk 100000000GB
config *.coreServer4.maxCpuSpeed 460000
config *.mecHost*.bsList "\"gnb1\""
config *.coreServer*.bsList "\"gnb1\""
config *.upf.typename UPF
config *.upf.forwarding true
config *.upf.qosEnabled true
config *.upf.highLatencyThreshold 50ms
config *.upf.routeTable "xmldoc(\"routes.xml\")"
config *.mecHost1.mecPlatform.numMecServices 1
config *.mecHost1.mecPlatform.mecService[0].typename LocationService
config *.mecHost1.mecPlatform.mecService[0].localAddress "\"mecHost1.virtualisationInfrastructure\""
config *.mecHost1.mecPlatform.mecService[0].localPort 10020
config *.mecHost1.mecPlatform.serviceRegistry.localAddress "\"mecHost1.virtualisationInfrastructure\""
config *.mecHost1.mecPlatform.serviceRegistry.localPort 10021
config *.mecHost2.mecPlatform.numMecServices 1
config *.mecHost2.mecPlatform.mecService[0].typename LocationService
config *.mecHost2.mecPlatform.mecService[0].localAddress "\"mecHost2.virtualisationInfrastructure\""
config *.mecHost2.mecPlatform.mecService[0].localPort 10022
config *.mecHost2.mecPlatform.serviceRegistry.localAddress "\"mecHost2.virtualisationInfrastructure\""
config *.mecHost2.mecPlatform.serviceRegistry.localPort 10023
config *.mecHost1.mecPlatform.serviceRegistry.rng-0 0
config *.mecHost1.mecPlatform.serviceRegistry.rng-1 1
config *.mecHost1.mecPlatform.mecService[0].rng-0 0
config *.mecHost1.mecPlatform.mecService[0].rng-1 1
config *.mecHost1.mecPlatform.mecService[0].requestServiceTime 20us
config *.mecHost1.mecPlatform.mecService[0].subscriptionServiceTime 11us
config *.mecHost2.mecPlatform.serviceRegistry.rng-0 0
config *.mecHost2.mecPlatform.serviceRegistry.rng-1 1
config *.mecHost2.mecPlatform.mecService[0].rng-0 0
config *.mecHost2.mecPlatform.mecService[0].rng-1 1
config *.mecHost2.mecPlatform.mecService[0].requestServiceTime 20us
config *.mecHost2.mecPlatform.mecService[0].subscriptionServiceTime 11us
config *.mecOrchestrator.mecHostList "\"mecHost1, mecHost2, coreServer1, coreServer2, coreServer3, coreServer4 \""
config *.mecOrchestrator.mecApplicationPackageList "\"WarningAlertApp\""
config *.mecHost*.mecPlatformManager.mecOrchestrator "\"mecOrchestrator\""
config *.coreServer*.mecPlatformManager.mecOrchestrator "\"mecOrchestrator\""
config *.mecOrchestrator.loadBalancingAlgorithm "\"random\""
config output-scalar-file-append false
config **.routingRecorder.enabled false
config output-scalar-file "results/MultiMec/$u=0, $numRbs=50, $numUEs=3-0.sca"
config output-vector-file "results/MultiMec/$u=0, $numRbs=50, $numUEs=3-0.vec"
config seed-set 0
config num-rngs 3
config **.sctp.**.scalar-recording false
config **.sctp.**.vector-recording false
config **.vector-recording true
config **.mecHost*.**.vector-recording true
config **.coreServer*.**.vector-recording true
config **.interfaceTable.recordStats true
config **.linkVisualizer.displayLinks true
config **.linkVisualizer.recordLinks true
config **.queue.recordStatistics true
config **.queue.recordDroppedPackets true
config *.playgroundSizeX 1100m
config *.playgroundSizeY 800m
config *.playgroundSizeZ 50m
config **.sctp.nagleEnabled false
config **.sctp.enableHeartbeats false
config **.downlink_interference true
config **.uplink_interference true
config **.ueTxPower 26
config **.eNodeBTxPower 46
config **.targetBler 0.01
config **.blerShift 5
config **.fbPeriod 40
config **.configurator.assignAddresses true
config **.configurator.addDefaultRoutes true
config **.configurator.addStaticRoutes true

vector 0 singleMecHost.upf.ppp[0].queue queueLength:vector ETV
attr autoWarmupFilter false
attr interpolationmode sample-hold
attr recordingmode vector
attr source "warmup(atomic(constant0(packetPushEnded) + count(packetPushStarted) - count(packetPulled) - count(packetRemoved) - count(packetDropped)))"
attr title "queue length"
attr unit pk
vector 1 singleMecHost.upf.ppp[0].queue queueBitLength:vector ETV
attr autoWarmupFilter false
attr interpolationmode sample-hold
attr recordingmode vector
attr source "warmup(atomic(constant0(packetPushEnded) + sum(packetLength(packetPushStarted)) - sum(packetLength(packetPulled)) - sum(packetLength(packetRemoved)) - sum(packetLength(packetDropped))))"
attr title "queue bit length"
attr unit b
vector 2 singleMecHost.upf.ppp[0].ppp transmissionState:vector ETV
attr interpolationmode sample-hold
attr recordingmode vector
attr source transmissionStateChanged
attr title "tx state"
vector 3 singleMecHost.upf.ppp[1].queue queueLength:vector ETV
attr autoWarmupFilter false
attr interpolationmode sample-hold
attr recordingmode vector
attr source "warmup(atomic(constant0(packetPushEnded) + count(packetPushStarted) - count(packetPulled) - count(packetRemoved) - count(packetDropped)))"
attr title "queue length"
attr unit pk
vector 4 singleMecHost.upf.ppp[1].queue queueBitLength:vector ETV
attr autoWarmupFilter false
attr interpolationmode sample-hold
attr recordingmode vector
attr source "warmup(atomic(constant0(packetPushEnded) + sum(packetLength(packetPushStarted)) - sum(packetLength(packetPulled)) - sum(packetLength(packetRemoved)) - sum(packetLength(packetDropped))))"
attr title "queue bit length"
attr unit b
vector 5 singleMecHost.upf.ppp[1].ppp transmissionState:vector ETV
attr interpolationmode sample-hold
attr recordingmode vector
attr source transmissionStateChanged
attr title "tx state"
vector 6 singleMecHost.upf.ppp[2].queue queueLength:vector ETV
attr autoWarmupFilter false
attr interpolationmode sample-hold
attr recordingmode vector
attr source "warmup(atomic(constant0(packetPushEnded) + count(packetPushStarted) - count(packetPulled) - count(packetRemoved) - count(packetDropped)))"
attr title "queue length"
attr unit pk
vector 7 singleMecHost.upf.ppp[2].queue queueBitLength:vector ETV
attr autoWarmupFilter false
attr interpolationmode sample-hold
attr recordingmode vector
attr source "warmup(atomic(constant0(packetPushEnded) + sum(packetLength(packetPushStarted)) - sum(packetLength(packetPulled)) - sum(packetLength(packetRemoved)) - sum(packetLength(packetDropped))))"
attr title "queue bit length"
attr unit b
vector 8 singleMecHost.upf.ppp[2].ppp transmissionState:vector ETV
attr interpolationmode sample-hold
attr recordingmode vector
attr source transmissionStateChanged
attr title "tx state"
vector 9 singleMecHost.upf.ppp[3].queue queueLength:vector ETV
attr autoWarmupFilter false
attr interpolationmode sample-hold
attr recordingmode vector
attr source "warmup(atomic(constant0(packetPushEnded) + count(packetPushStarted) - count(packetPulled) - count(packetRemoved) - count(packetDropped)))"
attr title "queue length"
attr unit pk
vector 10 singleMecHost.upf.ppp[3].queue queueBitLength:vector ETV
attr autoWarmupFilter false
attr interpolationmode sample-hold
attr recordingmode vector
attr source "warmup(atomic(constant0(packetPushEnded) + sum(packetLength(packetPushStarted)) - sum(packetLength(packetPulled)) - sum(packetLength(packetRemoved)) - sum(packetLength(packetDropped))))"
attr title "queue bit length"
attr unit b
vector 11 singleMecHost.upf.ppp[3].ppp transmissionState:vector ETV
attr interpolationmode sample-hold
attr recordingmode vector
attr source transmissionStateChanged
attr title "tx state"
vector 12 singleMecHost.upf.ppp[4].queue queueLength:vector ETV
attr autoWarmupFilter false
attr interpolationmode sample-hold
attr recordingmode vector
attr source "warmup(atomic(constant0(packetPushEnded) + count(packetPushStarted) - count(packetPulled) - count(packetRemoved) - count(packetDropped)))"
attr title "queue length"
attr unit pk
vector 13 singleMecHost.upf.ppp[4].queue queueBitLength:vector ETV
attr autoWarmupFilter false
attr interpolationmode sample-hold
attr recordingmode vector
attr source "warmup(atomic(constant0(packetPushEnded) + sum(packetLength(packetPushStarted)) - sum(packetLength(packetPulled)) - sum(packetLength(packetRemoved)) - sum(packetLength(packetDropped))))"
attr title "queue bit length"
attr unit b
vector 14 singleMecHost.upf.ppp[4].ppp transmissionState:vector ETV
attr interpolationmode sample-hold
attr recordingmode vector
attr source transmissionStateChanged
attr title "tx state"
vector 15 singleMecHost.upf.pppIf.queue queueLength:vector ETV
attr autoWarmupFilter false
attr interpolationmode sample-hold
attr recordingmode vector
attr source "warmup(atomic(constant0(packetPushEnded) + count(packetPushStarted) - count(packetPulled) - count(packetRemoved) - count(packetDropped)))"
attr title "queue length"
attr unit pk
vector 16 singleMecHost.upf.pppIf.queue queueBitLength:vector ETV
attr autoWarmupFilter false
attr interpolationmode sample-hold
attr recordingmode vector
attr source "warmup(atomic(constant0(packetPushEnded) + sum(packetLength(packetPushStarted)) - sum(packetLength(packetPulled)) - sum(packetLength(packetRemoved)) - sum(packetLength(packetDropped))))"
attr title "queue bit length"
attr unit b
vector 17 singleMecHost.upf.pppIf.ppp transmissionState:vector ETV
attr interpolationmode sample-hold
attr recordingmode vector
attr source transmissionStateChanged
attr title "tx state"
vector 18 singleMecHost.upf.udp passedUpPk:vector(count) ETV
attr interpolationmode none
attr recordingmode vector(count)
attr source packetSentToUpper
attr title "packets passed up, count"
vector 19 singleMecHost.upf.udp droppedPkWrongPort:vector(count) ETV
attr interpolationmode none
attr recordingmode vector(count)
attr source packetDropReasonIsNoPortFound(packetDropped)
attr title "packets dropped (wrong port), count"
vector 20 singleMecHost.upf.udp droppedPkBadChecksum:vector(count) ETV
attr interpolationmode none
attr recordingmode vector(count)
attr source packetDropReasonIsIncorrectlyReceived(packetDropped)
attr title "packets dropped (checksum error), count"
vector 21 singleMecHost.iUpf.ppp[0].queue queueLength:vector ETV
attr autoWarmupFilter false
attr interpolationmode sample-hold
attr recordingmode vector
attr source "warmup(atomic(constant0(packetPushEnded) + count(packetPushStarted) - count(packetPulled) - count(packetRemoved) - count(packetDropped)))"
attr title "queue length"
attr unit pk
vector 22 singleMecHost.iUpf.ppp[0].queue queueBitLength:vector ETV
attr autoWarmupFilter false
attr interpolationmode sample-hold
attr recordingmode vector
attr source "warmup(atomic(constant0(packetPushEnded) + sum(packetLength(packetPushStarted)) - sum(packetLength(packetPulled)) - sum(packetLength(packetRemoved)) - sum(packetLength(packetDropped))))"
attr title "queue bit length"
attr unit b
vector 23 singleMecHost.iUpf.ppp[0].ppp transmissionState:vector ETV
attr interpolationmode sample-hold
attr recordingmode vector
attr source transmissionStateChanged
attr title "tx state"
vector 24 singleMecHost.iUpf.ppp[1].queue queueLength:vector ETV
attr autoWarmupFilter false
attr interpolationmode sample-hold
attr recordingmode vector
attr source "warmup(atomic(constant0(packetPushEnded) + count(packetPushStarted) - count(packetPulled) - count(packetRemoved) - count(packetDropped)))"
attr title "queue length"
attr unit pk
vector 25 singleMecHost.iUpf.ppp[1].queue queueBitLength:vector ETV
attr autoWarmupFilter false
attr interpolationmode sample-hold
attr recordingmode vector
attr source "warmup(atomic(constant0(packetPushEnded) + sum(packetLength(packetPushStarted)) - sum(packetLength(packetPulled)) - sum(packetLength(packetRemoved)) - sum(packetLength(packetDropped))))"
attr title "queue bit length"
attr unit b
vector 26 singleMecHost.iUpf.ppp[1].ppp transmissionState:vector ETV
attr interpolationmode sample-hold
attr recordingmode vector
attr source transmissionStateChanged
attr title "tx state"
vector 27 singleMecHost.iUpf.ppp[2].queue queueLength:vector ETV
attr autoWarmupFilter false
attr interpolationmode sample-hold
attr recordingmode vector
attr source "warmup(atomic(constant0(packetPushEnded) + count(packetPushStarted) - count(packetPulled) - count(packetRemoved) - count(packetDropped)))"
attr title "queue length"
attr unit pk
vector 28 singleMecHost.iUpf.ppp[2].queue queueBitLength:vector ETV
attr autoWarmupFilter false
attr interpolationmode sample-hold
attr recordingmode vector
attr source "warmup(atomic(constant0(packetPushEnded) + sum(packetLength(packetPushStarted)) - sum(packetLength(packetPulled)) - sum(packetLength(packetRemoved)) - sum(packetLength(packetDropped))))"
attr title "queue bit length"
attr unit b
vector 29 singleMecHost.iUpf.ppp[2].ppp transmissionState:vector ETV
attr interpolationmode sample-hold
attr recordingmode vector
attr source transmissionStateChanged
attr title "tx state"
vector 30 singleMecHost.iUpf.ppp[3].queue queueLength:vector ETV
attr autoWarmupFilter false
attr interpolationmode sample-hold
attr recordingmode vector
attr source "warmup(atomic(constant0(packetPushEnded) + count(packetPushStarted) - count(packetPulled) - count(packetRemoved) - count(packetDropped)))"
attr title "queue length"
attr unit pk
vector 31 singleMecHost.iUpf.ppp[3].queue queueBitLength:vector ETV
attr autoWarmupFilter false
attr interpolationmode sample-hold
attr recordingmode vector
attr source "warmup(atomic(constant0(packetPushEnded) + sum(packetLength(packetPushStarted)) - sum(packetLength(packetPulled)) - sum(packetLength(packetRemoved)) - sum(packetLength(packetDropped))))"
attr title "queue bit length"
attr unit b
vector 32 singleMecHost.iUpf.ppp[3].ppp transmissionState:vector ETV
attr interpolationmode sample-hold
attr recordingmode vector
attr source transmissionStateChanged
attr title "tx state"
vector 33 singleMecHost.iUpf.pppIf.queue queueLength:vector ETV
attr autoWarmupFilter false
attr interpolationmode sample-hold
attr recordingmode vector
attr source "warmup(atomic(constant0(packetPushEnded) + count(packetPushStarted) - count(packetPulled) - count(packetRemoved) - count(packetDropped)))"
attr title "queue length"
attr unit pk
vector 34 singleMecHost.iUpf.pppIf.queue queueBitLength:vector ETV
attr autoWarmupFilter false
attr interpolationmode sample-hold
attr recordingmode vector
attr source "warmup(atomic(constant0(packetPushEnded) + sum(packetLength(packetPushStarted)) - sum(packetLength(packetPulled)) - sum(packetLength(packetRemoved)) - sum(packetLength(packetDropped))))"
attr title "queue bit length"
attr unit b
vector 35 singleMecHost.iUpf.pppIf.ppp transmissionState:vector ETV
attr interpolationmode sample-hold
attr recordingmode vector
attr source transmissionStateChanged
attr title "tx state"
vector 36 singleMecHost.iUpf.udp passedUpPk:vector(count) ETV
attr interpolationmode none
attr recordingmode vector(count)
attr source packetSentToUpper
attr title "packets passed up, count"
vector 37 singleMecHost.iUpf.udp droppedPkWrongPort:vector(count) ETV
attr interpolationmode none
attr recordingmode vector(count)
attr source packetDropReasonIsNoPortFound(packetDropped)
attr title "packets dropped (wrong port), count"
vector 38 singleMecHost.iUpf.udp droppedPkBadChecksum:vector(count) ETV
attr interpolationmode none
attr recordingmode vector(count)
attr source packetDropReasonIsIncorrectlyReceived(packetDropped)
attr title "packets dropped (checksum error), count"
vector 39 singleMecHost.gnb1.pppIf.queue queueLength:vector ETV
attr autoWarmupFilter false
attr interpolationmode sample-hold
attr recordingmode vector
attr source "warmup(atomic(constant0(packetPushEnded) + count(packetPushStarted) - count(packetPulled) - count(packetRemoved) - count(packetDropped)))"
attr title "queue length"
attr unit pk
vector 40 singleMecHost.gnb1.pppIf.queue queueBitLength:vector ETV
attr autoWarmupFilter false
attr interpolationmode sample-hold
attr recordingmode vector
attr source "warmup(atomic(constant0(packetPushEnded) + sum(packetLength(packetPushStarted)) - sum(packetLength(packetPulled)) - sum(packetLength(packetRemoved)) - sum(packetLength(packetDropped))))"
attr title "queue bit length"
attr unit b
vector 41 singleMecHost.gnb1.pppIf.ppp transmissionState:vector ETV
attr interpolationmode sample-hold
attr recordingmode vector
attr source transmissionStateChanged
attr title "tx state"
vector 42 singleMecHost.gnb1.pppMEHostIf.queue queueLength:vector ETV
attr autoWarmupFilter false
attr interpolationmode sample-hold
attr recordingmode vector
attr source "warmup(atomic(constant0(packetPushEnded) + count(packetPushStarted) - count(packetPulled) - count(packetRemoved) - count(packetDropped)))"
attr title "queue length"
attr unit pk
vector 43 singleMecHost.gnb1.pppMEHostIf.queue queueBitLength:vector ETV
attr autoWarmupFilter false
attr interpolationmode sample-hold
attr recordingmode vector
attr source "warmup(atomic(constant0(packetPushEnded) + sum(packetLength(packetPushStarted)) - sum(packetLength(packetPulled)) - sum(packetLength(packetRemoved)) - sum(packetLength(packetDropped))))"
attr title "queue bit length"
attr unit b
vector 44 singleMecHost.gnb1.pppMEHostIf.ppp transmissionState:vector ETV
attr interpolationmode sample-hold
attr recordingmode vector
attr source transmissionStateChanged
attr title "tx state"
vector 45 singleMecHost.gnb1.udp passedUpPk:vector(count) ETV
attr interpolationmode none
attr recordingmode vector(count)
attr source packetSentToUpper
attr title "packets passed up, count"
vector 46 singleMecHost.gnb1.udp droppedPkWrongPort:vector(count) ETV
attr interpolationmode none
attr recordingmode vector(count)
attr source packetDropReasonIsNoPortFound(packetDropped)
attr title "packets dropped (wrong port), count"
vector 47 singleMecHost.gnb1.udp droppedPkBadChecksum:vector(count) ETV
attr interpolationmode none
attr recordingmode vector(count)
attr source packetDropReasonIsIncorrectlyReceived(packetDropped)
attr title "packets dropped (checksum error), count"
vector 48 singleMecHost.ue[0].udp passedUpPk:vector(count) ETV
attr interpolationmode none
attr recordingmode vector(count)
attr source packetSentToUpper
attr title "packets passed up, count"
vector 49 singleMecHost.ue[0].udp droppedPkWrongPort:vector(count) ETV
attr interpolationmode none
attr recordingmode vector(count)
attr source packetDropReasonIsNoPortFound(packetDropped)
attr title "packets dropped (wrong port), count"
vector 50 singleMecHost.ue[0].udp droppedPkBadChecksum:vector(count) ETV
attr interpolationmode none
attr recordingmode vector(count)
attr source packetDropReasonIsIncorrectlyReceived(packetDropped)
attr title "packets dropped (checksum error), count"
vector 51 singleMecHost.ue[1].udp passedUpPk:vector(count) ETV
attr interpolationmode none
attr recordingmode vector(count)
attr source packetSentToUpper
attr title "packets passed up, count"
vector 52 singleMecHost.ue[1].udp droppedPkWrongPort:vector(count) ETV
attr interpolationmode none
attr recordingmode vector(count)
attr source packetDropReasonIsNoPortFound(packetDropped)
attr title "packets dropped (wrong port), count"
vector 53 singleMecHost.ue[1].udp droppedPkBadChecksum:vector(count) ETV
attr interpolationmode none
attr recordingmode vector(count)
attr source packetDropReasonIsIncorrectlyReceived(packetDropped)
attr title "packets dropped (checksum error), count"
vector 54 singleMecHost.ue[2].udp passedUpPk:vector(count) ETV
attr interpolationmode none
attr recordingmode vector(count)
attr source packetSentToUpper
attr title "packets passed up, count"
vector 55 singleMecHost.ue[2].udp droppedPkWrongPort:vector(count) ETV
attr interpolationmode none
attr recordingmode vector(count)
attr source packetDropReasonIsNoPortFound(packetDropped)
attr title "packets dropped (wrong port), count"
vector 56 singleMecHost.ue[2].udp droppedPkBadChecksum:vector(count) ETV
attr interpolationmode none
attr recordingmode vector(count)
attr source packetDropReasonIsIncorrectlyReceived(packetDropped)
attr title "packets dropped (checksum error), count"
vector 57 singleMecHost.mecHost1.virtualisationInfrastructure.pppIf[0].queue queueLength:vector ETV
attr autoWarmupFilter false
attr interpolationmode sample-hold
attr recordingmode vector
attr source "warmup(atomic(constant0(packetPushEnded) + count(packetPushStarted) - count(packetPulled) - count(packetRemoved) - count(packetDropped)))"
attr title "queue length"
attr unit pk
vector 58 singleMecHost.mecHost1.virtualisationInfrastructure.pppIf[0].queue queueBitLength:vector ETV
attr autoWarmupFilter false
attr interpolationmode sample-hold
attr recordingmode vector
attr source "warmup(atomic(constant0(packetPushEnded) + sum(packetLength(packetPushStarted)) - sum(packetLength(packetPulled)) - sum(packetLength(packetRemoved)) - sum(packetLength(packetDropped))))"
attr title "queue bit length"
attr unit b
vector 59 singleMecHost.mecHost1.virtualisationInfrastructure.pppIf[0].ppp transmissionState:vector ETV
attr interpolationmode sample-hold
attr recordingmode vector
attr source transmissionStateChanged
attr title "tx state"
vector 60 singleMecHost.mecHost1.virtualisationInfrastructure.udp passedUpPk:vector(count) ETV
attr interpolationmode none
attr recordingmode vector(count)
attr source packetSentToUpper
attr title "packets passed up, count"
vector 61 singleMecHost.mecHost1.virtualisationInfrastructure.udp droppedPkWrongPort:vector(count) ETV
attr interpolationmode none
attr recordingmode vector(count)
attr source packetDropReasonIsNoPortFound(packetDropped)
attr title "packets dropped (wrong port), count"
vector 62 singleMecHost.mecHost1.virtualisationInfrastructure.udp droppedPkBadChecksum:vector(count) ETV
attr interpolationmode none
attr recordingmode vector(count)
attr source packetDropReasonIsIncorrectlyReceived(packetDropped)
attr title "packets dropped (checksum error), count"
vector 63 singleMecHost.mecHost1.upf_mec.ppp[0].queue queueLength:vector ETV
attr autoWarmupFilter false
attr interpolationmode sample-hold
attr recordingmode vector
attr source "warmup(atomic(constant0(packetPushEnded) + count(packetPushStarted) - count(packetPulled) - count(packetRemoved) - count(packetDropped)))"
attr title "queue length"
attr unit pk
vector 64 singleMecHost.mecHost1.upf_mec.ppp[0].queue queueBitLength:vector ETV
attr autoWarmupFilter false
attr interpolationmode sample-hold
attr recordingmode vector
attr source "warmup(atomic(constant0(packetPushEnded) + sum(packetLength(packetPushStarted)) - sum(packetLength(packetPulled)) - sum(packetLength(packetRemoved)) - sum(packetLength(packetDropped))))"
attr title "queue bit length"
attr unit b
vector 65 singleMecHost.mecHost1.upf_mec.ppp[0].ppp transmissionState:vector ETV
attr interpolationmode sample-hold
attr recordingmode vector
attr source transmissionStateChanged
attr title "tx state"
vector 66 singleMecHost.mecHost1.upf_mec.pppIf.queue queueLength:vector ETV
attr autoWarmupFilter false
attr interpolationmode sample-hold
attr recordingmode vector
attr source "warmup(atomic(constant0(packetPushEnded) + count(packetPushStarted) - count(packetPulled) - count(packetRemoved) - count(packetDropped)))"
attr title "queue length"
attr unit pk
vector 67 singleMecHost.mecHost1.upf_mec.pppIf.queue queueBitLength:vector ETV
attr autoWarmupFilter false
attr interpolationmode sample-hold
attr recordingmode vector
attr source "warmup(atomic(constant0(packetPushEnded) + sum(packetLength(packetPushStarted)) - sum(packetLength(packetPulled)) - sum(packetLength(packetRemoved)) - sum(packetLength(packetDropped))))"
attr title "queue bit length"
attr unit b
vector 68 singleMecHost.mecHost1.upf_mec.pppIf.ppp transmissionState:vector ETV
attr interpolationmode sample-hold
attr recordingmode vector
attr source transmissionStateChanged
attr title "tx state"
vector 69 singleMecHost.mecHost1.upf_mec.udp passedUpPk:vector(count) ETV
attr interpolationmode none
attr recordingmode vector(count)
attr source packetSentToUpper
attr title "packets passed up, count"
vector 70 singleMecHost.mecHost1.upf_mec.udp droppedPkWrongPort:vector(count) ETV
attr interpolationmode none
attr recordingmode vector(count)
attr source packetDropReasonIsNoPortFound(packetDropped)
attr title "packets dropped (wrong port), count"
vector 71 singleMecHost.mecHost1.upf_mec.udp droppedPkBadChecksum:vector(count) ETV
attr interpolationmode none
attr recordingmode vector(count)
attr source packetDropReasonIsIncorrectlyReceived(packetDropped)
attr title "packets dropped (checksum error), count"
vector 72 singleMecHost.router1.ppp[0].queue queueLength:vector ETV
attr autoWarmupFilter false
attr interpolationmode sample-hold
attr recordingmode vector
attr source "warmup(atomic(constant0(packetPushEnded) + count(packetPushStarted) - count(packetPulled) - count(packetRemoved) - count(packetDropped)))"
attr title "queue length"
attr unit pk
vector 73 singleMecHost.router1.ppp[0].queue queueBitLength:vector ETV
attr autoWarmupFilter false
attr interpolationmode sample-hold
attr recordingmode vector
attr source "warmup(atomic(constant0(packetPushEnded) + sum(packetLength(packetPushStarted)) - sum(packetLength(packetPulled)) - sum(packetLength(packetRemoved)) - sum(packetLength(packetDropped))))"
attr title "queue bit length"
attr unit b
vector 74 singleMecHost.router1.ppp[0].ppp transmissionState:vector ETV
attr interpolationmode sample-hold
attr recordingmode vector
attr source transmissionStateChanged
attr title "tx state"
vector 75 singleMecHost.router1.ppp[1].queue queueLength:vector ETV
attr autoWarmupFilter false
attr interpolationmode sample-hold
attr recordingmode vector
attr source "warmup(atomic(constant0(packetPushEnded) + count(packetPushStarted) - count(packetPulled) - count(packetRemoved) - count(packetDropped)))"
attr title "queue length"
attr unit pk
vector 76 singleMecHost.router1.ppp[1].queue queueBitLength:vector ETV
attr autoWarmupFilter false
attr interpolationmode sample-hold
attr recordingmode vector
attr source "warmup(atomic(constant0(packetPushEnded) + sum(packetLength(packetPushStarted)) - sum(packetLength(packetPulled)) - sum(packetLength(packetRemoved)) - sum(packetLength(packetDropped))))"
attr title "queue bit length"
attr unit b
vector 77 singleMecHost.router1.ppp[1].ppp transmissionState:vector ETV
attr interpolationmode sample-hold
attr recordingmode vector
attr source transmissionStateChanged
attr title "tx state"
vector 78 singleMecHost.router1.ppp[2].queue queueLength:vector ETV
attr autoWarmupFilter false
attr interpolationmode sample-hold
attr recordingmode vector
attr source "warmup(atomic(constant0(packetPushEnded) + count(packetPushStarted) - count(packetPulled) - count(packetRemoved) - count(packetDropped)))"
attr title "queue length"
attr unit pk
vector 79 singleMecHost.router1.ppp[2].queue queueBitLength:vector ETV
attr autoWarmupFilter false
attr interpolationmode sample-hold
attr recordingmode vector
attr source "warmup(atomic(constant0(packetPushEnded) + sum(packetLength(packetPushStarted)) - sum(packetLength(packetPulled)) - sum(packetLength(packetRemoved)) - sum(packetLength(packetDropped))))"
attr title "queue bit length"
attr unit b
vector 80 singleMecHost.router1.ppp[2].ppp transmissionState:vector ETV
attr interpolationmode sample-hold
attr recordingmode vector
attr source transmissionStateChanged
attr title "tx state"
vector 81 singleMecHost.router2.ppp[0].queue queueLength:vector ETV
attr autoWarmupFilter false
attr interpolationmode sample-hold
attr recordingmode vector
attr source "warmup(atomic(constant0(packetPushEnded) + count(packetPushStarted) - count(packetPulled) - count(packetRemoved) - count(packetDropped)))"
attr title "queue length"
attr unit pk
vector 82 singleMecHost.router2.ppp[0].queue queueBitLength:vector ETV
attr autoWarmupFilter false
attr interpolationmode sample-hold
attr recordingmode vector
attr source "warmup(atomic(constant0(packetPushEnded) + sum(packetLength(packetPushStarted)) - sum(packetLength(packetPulled)) - sum(packetLength(packetRemoved)) - sum(packetLength(packetDropped))))"
attr title "queue bit length"
attr unit b
vector 83 singleMecHost.router2.ppp[0].ppp transmissionState:vector ETV
attr interpolationmode sample-hold
attr recordingmode vector
attr source transmissionStateChanged
attr title "tx state"
vector 84 singleMecHost.router2.ppp[1].queue queueLength:vector ETV
attr autoWarmupFilter false
attr interpolationmode sample-hold
attr recordingmode vector
attr source "warmup(atomic(constant0(packetPushEnded) + count(packetPushStarted) - count(packetPulled) - count(packetRemoved) - count(packetDropped)))"
attr title "queue length"
attr unit pk
vector 85 singleMecHost.router2.ppp[1].queue queueBitLength:vector ETV
attr autoWarmupFilter false
attr interpolationmode sample-hold
attr recordingmode vector
attr source "warmup(atomic(constant0(packetPushEnded) + sum(packetLength(packetPushStarted)) - sum(packetLength(packetPulled)) - sum(packetLength(packetRemoved)) - sum(packetLength(packetDropped))))"
attr title "queue bit length"
attr unit b
vector 86 singleMecHost.router2.ppp[1].ppp transmissionState:vector ETV
attr interpolationmode sample-hold
attr recordingmode vector
attr source transmissionStateChanged
attr title "tx state"
vector 87 singleMecHost.router2.ppp[2].queue queueLength:vector ETV
attr autoWarmupFilter false
attr interpolationmode sample-hold
attr recordingmode vector
attr source "warmup(atomic(constant0(packetPushEnded) + count(packetPushStarted) - count(packetPulled) - count(packetRemoved) - count(packetDropped)))"
attr title "queue length"
attr unit pk
vector 88 singleMecHost.router2.ppp[2].queue queueBitLength:vector ETV
attr autoWarmupFilter false
attr interpolationmode sample-hold
attr recordingmode vector
attr source "warmup(atomic(constant0(packetPushEnded) + sum(packetLength(packetPushStarted)) - sum(packetLength(packetPulled)) - sum(packetLength(packetRemoved)) - sum(packetLength(packetDropped))))"
attr title "queue bit length"
attr unit b
vector 89 singleMecHost.router2.ppp[2].ppp transmissionState:vector ETV
attr interpolationmode sample-hold
attr recordingmode vector
attr source transmissionStateChanged
attr title "tx state"
vector 90 singleMecHost.router3.ppp[0].queue queueLength:vector ETV
attr autoWarmupFilter false
attr interpolationmode sample-hold
attr recordingmode vector
attr source "warmup(atomic(constant0(packetPushEnded) + count(packetPushStarted) - count(packetPulled) - count(packetRemoved) - count(packetDropped)))"
attr title "queue length"
attr unit pk
vector 91 singleMecHost.router3.ppp[0].queue queueBitLength:vector ETV
attr autoWarmupFilter false
attr interpolationmode sample-hold
attr recordingmode vector
attr source "warmup(atomic(constant0(packetPushEnded) + sum(packetLength(packetPushStarted)) - sum(packetLength(packetPulled)) - sum(packetLength(packetRemoved)) - sum(packetLength(packetDropped))))"
attr title "queue bit length"
attr unit b
vector 92 singleMecHost.router3.ppp[0].ppp transmissionState:vector ETV
attr interpolationmode sample-hold
attr recordingmode vector
attr source transmissionStateChanged
attr title "tx state"
vector 93 singleMecHost.router3.ppp[1].queue queueLength:vector ETV
attr autoWarmupFilter false
attr interpolationmode sample-hold
attr recordingmode vector
attr source "warmup(atomic(constant0(packetPushEnded) + count(packetPushStarted) - count(packetPulled) - count(packetRemoved) - count(packetDropped)))"
attr title "queue length"
attr unit pk
vector 94 singleMecHost.router3.ppp[1].queue queueBitLength:vector ETV
attr autoWarmupFilter false
attr interpolationmode sample-hold
attr recordingmode vector
attr source "warmup(atomic(constant0(packetPushEnded) + sum(packetLength(packetPushStarted)) - sum(packetLength(packetPulled)) - sum(packetLength(packetRemoved)) - sum(packetLength(packetDropped))))"
attr title "queue bit length"
attr unit b
vector 95 singleMecHost.router3.ppp[1].ppp transmissionState:vector ETV
attr interpolationmode sample-hold
attr recordingmode vector
attr source transmissionStateChanged
attr title "tx state"
vector 96 singleMecHost.router3.ppp[2].queue queueLength:vector ETV
attr autoWarmupFilter false
attr interpolationmode sample-hold
attr recordingmode vector
attr source "warmup(atomic(constant0(packetPushEnded) + count(packetPushStarted) - count(packetPulled) - count(packetRemoved) - count(packetDropped)))"
attr title "queue length"
attr unit pk
vector 97 singleMecHost.router3.ppp[2].queue queueBitLength:vector ETV
attr autoWarmupFilter false
attr interpolationmode sample-hold
attr recordingmode vector
attr source "warmup(atomic(constant0(packetPushEnded) + sum(packetLength(packetPushStarted)) - sum(packetLength(packetPulled)) - sum(packetLength(packetRemoved)) - sum(packetLength(packetDropped))))"
attr title "queue bit length"
attr unit b
vector 98 singleMecHost.router3.ppp[2].ppp transmissionState:vector ETV
attr interpolationmode sample-hold
attr recordingmode vector
attr source transmissionStateChanged
attr title "tx state"
vector 99 singleMecHost.router4.ppp[0].queue queueLength:vector ETV
attr autoWarmupFilter false
attr interpolationmode sample-hold
attr recordingmode vector
attr source "warmup(atomic(constant0(packetPushEnded) + count(packetPushStarted) - count(packetPulled) - count(packetRemoved) - count(packetDropped)))"
attr title "queue length"
attr unit pk
vector 100 singleMecHost.router4.ppp[0].queue queueBitLength:vector ETV
attr autoWarmupFilter false
attr interpolationmode sample-hold
attr recordingmode vector
attr source "warmup(atomic(constant0(packetPushEnded) + sum(packetLength(packetPushStarted)) - sum(packetLength(packetPulled)) - sum(packetLength(packetRemoved)) - sum(packetLength(packetDropped))))"
attr title "queue bit length"
attr unit b
vector 101 singleMecHost.router4.ppp[0].ppp transmissionState:vector ETV
attr interpolationmode sample-hold
attr recordingmode vector
attr source transmissionStateChanged
attr title "tx state"
vector 102 singleMecHost.router4.ppp[1].queue queueLength:vector ETV
attr autoWarmupFilter false
attr interpolationmode sample-hold
attr recordingmode vector
attr source "warmup(atomic(constant0(packetPushEnded) + count(packetPushStarted) - count(packetPulled) - count(packetRemoved) - count(packetDropped)))"
attr title "queue length"
attr unit pk
vector 103 singleMecHost.router4.ppp[1].queue queueBitLength:vector ETV
attr autoWarmupFilter false
attr interpolationmode sample-hold
attr recordingmode vector
attr source "warmup(atomic(constant0(packetPushEnded) + sum(packetLength(packetPushStarted)) - sum(packetLength(packetPulled)) - sum(packetLength(packetRemoved)) - sum(packetLength(packetDropped))))"
attr title "queue bit length"
attr unit b
vector 104 singleMecHost.router4.ppp[1].ppp transmissionState:vector ETV
attr interpolationmode sample-hold
attr recordingmode vector
attr source transmissionStateChanged
attr title "tx state"
vector 105 singleMecHost.router4.ppp[2].queue queueLength:vector ETV
attr autoWarmupFilter false
attr interpolationmode sample-hold
attr recordingmode vector
attr source "warmup(atomic(constant0(packetPushEnded) + count(packetPushStarted) - count(packetPulled) - count(packetRemoved) - count(packetDropped)))"
attr title "queue length"
attr unit pk
vector 106 singleMecHost.router4.ppp[2].queue queueBitLength:vector ETV
attr autoWarmupFilter false
attr interpolationmode sample-hold
attr recordingmode vector
attr source "warmup(atomic(constant0(packetPushEnded) + sum(packetLength(packetPushStarted)) - sum(packetLength(packetPulled)) - sum(packetLength(packetRemoved)) - sum(packetLength(packetDropped))))"
attr title "queue bit length"
attr unit b
vector 107 singleMecHost.router4.ppp[2].ppp transmissionState:vector ETV
attr interpolationmode sample-hold
attr recordingmode vector
attr source transmissionStateChanged
attr title "tx state"
vector 108 singleMecHost.router4.ppp[3].queue queueLength:vector ETV
attr autoWarmupFilter false
attr interpolationmode sample-hold
attr recordingmode vector
attr source "warmup(atomic(constant0(packetPushEnded) + count(packetPushStarted) - count(packetPulled) - count(packetRemoved) - count(packetDropped)))"
attr title "queue length"
attr unit pk
vector 109 singleMecHost.router4.ppp[3].queue queueBitLength:vector ETV
attr autoWarmupFilter false
attr interpolationmode sample-hold
attr recordingmode vector
attr source "warmup(atomic(constant0(packetPushEnded) + sum(packetLength(packetPushStarted)) - sum(packetLength(packetPulled)) - sum(packetLength(packetRemoved)) - sum(packetLength(packetDropped))))"
attr title "queue bit length"
attr unit b
vector 110 singleMecHost.router4.ppp[3].ppp transmissionState:vector ETV
attr interpolationmode sample-hold
attr recordingmode vector
attr source transmissionStateChanged
attr title "tx state"
vector 111 singleMecHost.router5.ppp[0].queue queueLength:vector ETV
attr autoWarmupFilter false
attr interpolationmode sample-hold
attr recordingmode vector
attr source "warmup(atomic(constant0(packetPushEnded) + count(packetPushStarted) - count(packetPulled) - count(packetRemoved) - count(packetDropped)))"
attr title "queue length"
attr unit pk
vector 112 singleMecHost.router5.ppp[0].queue queueBitLength:vector ETV
attr autoWarmupFilter false
attr interpolationmode sample-hold
attr recordingmode vector
attr source "warmup(atomic(constant0(packetPushEnded) + sum(packetLength(packetPushStarted)) - sum(packetLength(packetPulled)) - sum(packetLength(packetRemoved)) - sum(packetLength(packetDropped))))"
attr title "queue bit length"
attr unit b
vector 113 singleMecHost.router5.ppp[0].ppp transmissionState:vector ETV
attr interpolationmode sample-hold
attr recordingmode vector
attr source transmissionStateChanged
attr title "tx state"
vector 114 singleMecHost.router5.ppp[1].queue queueLength:vector ETV
attr autoWarmupFilter false
attr interpolationmode sample-hold
attr recordingmode vector
attr source "warmup(atomic(constant0(packetPushEnded) + count(packetPushStarted) - count(packetPulled) - count(packetRemoved) - count(packetDropped)))"
attr title "queue length"
attr unit pk
vector 115 singleMecHost.router5.ppp[1].queue queueBitLength:vector ETV
attr autoWarmupFilter false
attr interpolationmode sample-hold
attr recordingmode vector
attr source "warmup(atomic(constant0(packetPushEnded) + sum(packetLength(packetPushStarted)) - sum(packetLength(packetPulled)) - sum(packetLength(packetRemoved)) - sum(packetLength(packetDropped))))"
attr title "queue bit length"
attr unit b
vector 116 singleMecHost.router5.ppp[1].ppp transmissionState:vector ETV
attr interpolationmode sample-hold
attr recordingmode vector
attr source transmissionStateChanged
attr title "tx state"
vector 117 singleMecHost.router5.ppp[2].queue queueLength:vector ETV
attr autoWarmupFilter false
attr interpolationmode sample-hold
attr recordingmode vector
attr source "warmup(atomic(constant0(packetPushEnded) + count(packetPushStarted) - count(packetPulled) - count(packetRemoved) - count(packetDropped)))"
attr title "queue length"
attr unit pk
vector 118 singleMecHost.router5.ppp[2].queue queueBitLength:vector ETV
attr autoWarmupFilter false
attr interpolationmode sample-hold
attr recordingmode vector
attr source "warmup(atomic(constant0(packetPushEnded) + sum(packetLength(packetPushStarted)) - sum(packetLength(packetPulled)) - sum(packetLength(packetRemoved)) - sum(packetLength(packetDropped))))"
attr title "queue bit length"
attr unit b
vector 119 singleMecHost.router5.ppp[2].ppp transmissionState:vector ETV
attr interpolationmode sample-hold
attr recordingmode vector
attr source transmissionStateChanged
attr title "tx state"
vector 120 singleMecHost.router5.ppp[3].queue queueLength:vector ETV
attr autoWarmupFilter false
attr interpolationmode sample-hold
attr recordingmode vector
attr source "warmup(atomic(constant0(packetPushEnded) + count(packetPushStarted) - count(packetPulled) - count(packetRemoved) - count(packetDropped)))"
attr title "queue length"
attr unit pk
vector 121 singleMecHost.router5.ppp[3].queue queueBitLength:vector ETV
attr autoWarmupFilter false
attr interpolationmode sample-hold
attr recordingmode vector
attr source "warmup(atomic(constant0(packetPushEnded) + sum(packetLength(packetPushStarted)) - sum(packetLength(packetPulled)) - sum(packetLength(packetRemoved)) - sum(packetLength(packetDropped))))"
attr title "queue bit length"
attr unit b
vector 122 singleMecHost.router5.ppp[3].ppp transmissionState:vector ETV
attr interpolationmode sample-hold
attr recordingmode vector
attr source transmissionStateChanged
attr title "tx state"
vector 123 singleMecHost.router6.ppp[0].queue queueLength:vector ETV
attr autoWarmupFilter false
attr interpolationmode sample-hold
attr recordingmode vector
attr source "warmup(atomic(constant0(packetPushEnded) + count(packetPushStarted) - count(packetPulled) - count(packetRemoved) - count(packetDropped)))"
attr title "queue length"
attr unit pk
vector 124 singleMecHost.router6.ppp[0].queue queueBitLength:vector ETV
attr autoWarmupFilter false
attr interpolationmode sample-hold
attr recordingmode vector
attr source "warmup(atomic(constant0(packetPushEnded) + sum(packetLength(packetPushStarted)) - sum(packetLength(packetPulled)) - sum(packetLength(packetRemoved)) - sum(packetLength(packetDropped))))"
attr title "queue bit length"
attr unit b
vector 125 singleMecHost.router6.ppp[0].ppp transmissionState:vector ETV
attr interpolationmode sample-hold
attr recordingmode vector
attr source transmissionStateChanged
attr title "tx state"
vector 126 singleMecHost.router6.ppp[1].queue queueLength:vector ETV
attr autoWarmupFilter false
attr interpolationmode sample-hold
attr recordingmode vector
attr source "warmup(atomic(constant0(packetPushEnded) + count(packetPushStarted) - count(packetPulled) - count(packetRemoved) - count(packetDropped)))"
attr title "queue length"
attr unit pk
vector 127 singleMecHost.router6.ppp[1].queue queueBitLength:vector ETV
attr autoWarmupFilter false
attr interpolationmode sample-hold
attr recordingmode vector
attr source "warmup(atomic(constant0(packetPushEnded) + sum(packetLength(packetPushStarted)) - sum(packetLength(packetPulled)) - sum(packetLength(packetRemoved)) - sum(packetLength(packetDropped))))"
attr title "queue bit length"
attr unit b
vector 128 singleMecHost.router6.ppp[1].ppp transmissionState:vector ETV
attr interpolationmode sample-hold
attr recordingmode vector
attr source transmissionStateChanged
attr title "tx state"
vector 129 singleMecHost.router6.ppp[2].queue queueLength:vector ETV
attr autoWarmupFilter false
attr interpolationmode sample-hold
attr recordingmode vector
attr source "warmup(atomic(constant0(packetPushEnded) + count(packetPushStarted) - count(packetPulled) - count(packetRemoved) - count(packetDropped)))"
attr title "queue length"
attr unit pk
vector 130 singleMecHost.router6.ppp[2].queue queueBitLength:vector ETV
attr autoWarmupFilter false
attr interpolationmode sample-hold
attr recordingmode vector
attr source "warmup(atomic(constant0(packetPushEnded) + sum(packetLength(packetPushStarted)) - sum(packetLength(packetPulled)) - sum(packetLength(packetRemoved)) - sum(packetLength(packetDropped))))"
attr title "queue bit length"
attr unit b
vector 131 singleMecHost.router6.ppp[2].ppp transmissionState:vector ETV
attr interpolationmode sample-hold
attr recordingmode vector
attr source transmissionStateChanged
attr title "tx state"
vector 132 singleMecHost.router7.ppp[0].queue queueLength:vector ETV
attr autoWarmupFilter false
attr interpolationmode sample-hold
attr recordingmode vector
attr source "warmup(atomic(constant0(packetPushEnded) + count(packetPushStarted) - count(packetPulled) - count(packetRemoved) - count(packetDropped)))"
attr title "queue length"
attr unit pk
vector 133 singleMecHost.router7.ppp[0].queue queueBitLength:vector ETV
attr autoWarmupFilter false
attr interpolationmode sample-hold
attr recordingmode vector
attr source "warmup(atomic(constant0(packetPushEnded) + sum(packetLength(packetPushStarted)) - sum(packetLength(packetPulled)) - sum(packetLength(packetRemoved)) - sum(packetLength(packetDropped))))"
attr title "queue bit length"
attr unit b
vector 134 singleMecHost.router7.ppp[0].ppp transmissionState:vector ETV
attr interpolationmode sample-hold
attr recordingmode vector
attr source transmissionStateChanged
attr title "tx state"
vector 135 singleMecHost.router7.ppp[1].queue queueLength:vector ETV
attr autoWarmupFilter false
attr interpolationmode sample-hold
attr recordingmode vector
attr source "warmup(atomic(constant0(packetPushEnded) + count(packetPushStarted) - count(packetPulled) - count(packetRemoved) - count(packetDropped)))"
attr title "queue length"
attr unit pk
vector 136 singleMecHost.router7.ppp[1].queue queueBitLength:vector ETV
attr autoWarmupFilter false
attr interpolationmode sample-hold
attr recordingmode vector
attr source "warmup(atomic(constant0(packetPushEnded) + sum(packetLength(packetPushStarted)) - sum(packetLength(packetPulled)) - sum(packetLength(packetRemoved)) - sum(packetLength(packetDropped))))"
attr title "queue bit length"
attr unit b
vector 137 singleMecHost.router7.ppp[1].ppp transmissionState:vector ETV
attr interpolationmode sample-hold
attr recordingmode vector
attr source transmissionStateChanged
attr title "tx state"
vector 138 singleMecHost.router7.ppp[2].queue queueLength:vector ETV
attr autoWarmupFilter false
attr interpolationmode sample-hold
attr recordingmode vector
attr source "warmup(atomic(constant0(packetPushEnded) + count(packetPushStarted) - count(packetPulled) - count(packetRemoved) - count(packetDropped)))"
attr title "queue length"
attr unit pk
vector 139 singleMecHost.router7.ppp[2].queue queueBitLength:vector ETV
attr autoWarmupFilter false
attr interpolationmode sample-hold
attr recordingmode vector
attr source "warmup(atomic(constant0(packetPushEnded) + sum(packetLength(packetPushStarted)) - sum(packetLength(packetPulled)) - sum(packetLength(packetRemoved)) - sum(packetLength(packetDropped))))"
attr title "queue bit length"
attr unit b
vector 140 singleMecHost.router7.ppp[2].ppp transmissionState:vector ETV
attr interpolationmode sample-hold
attr recordingmode vector
attr source transmissionStateChanged
attr title "tx state"
vector 141 singleMecHost.router8.ppp[0].queue queueLength:vector ETV
attr autoWarmupFilter false
attr interpolationmode sample-hold
attr recordingmode vector
attr source "warmup(atomic(constant0(packetPushEnded) + count(packetPushStarted) - count(packetPulled) - count(packetRemoved) - count(packetDropped)))"
attr title "queue length"
attr unit pk
vector 142 singleMecHost.router8.ppp[0].queue queueBitLength:vector ETV
attr autoWarmupFilter false
attr interpolationmode sample-hold
attr recordingmode vector
attr source "warmup(atomic(constant0(packetPushEnded) + sum(packetLength(packetPushStarted)) - sum(packetLength(packetPulled)) - sum(packetLength(packetRemoved)) - sum(packetLength(packetDropped))))"
attr title "queue bit length"
attr unit b
vector 143 singleMecHost.router8.ppp[0].ppp transmissionState:vector ETV
attr interpolationmode sample-hold
attr recordingmode vector
attr source transmissionStateChanged
attr title "tx state"
vector 144 singleMecHost.router8.ppp[1].queue queueLength:vector ETV
attr autoWarmupFilter false
attr interpolationmode sample-hold
attr recordingmode vector
attr source "warmup(atomic(constant0(packetPushEnded) + count(packetPushStarted) - count(packetPulled) - count(packetRemoved) - count(packetDropped)))"
attr title "queue length"
attr unit pk
vector 145 singleMecHost.router8.ppp[1].queue queueBitLength:vector ETV
attr autoWarmupFilter false
attr interpolationmode sample-hold
attr recordingmode vector
attr source "warmup(atomic(constant0(packetPushEnded) + sum(packetLength(packetPushStarted)) - sum(packetLength(packetPulled)) - sum(packetLength(packetRemoved)) - sum(packetLength(packetDropped))))"
attr title "queue bit length"
attr unit b
vector 146 singleMecHost.router8.ppp[1].ppp transmissionState:vector ETV
attr interpolationmode sample-hold
attr recordingmode vector
attr source transmissionStateChanged
attr title "tx state"
vector 147 singleMecHost.router8.ppp[2].queue queueLength:vector ETV
attr autoWarmupFilter false
attr interpolationmode sample-hold
attr recordingmode vector
attr source "warmup(atomic(constant0(packetPushEnded) + count(packetPushStarted) - count(packetPulled) - count(packetRemoved) - count(packetDropped)))"
attr title "queue length"
attr unit pk
vector 148 singleMecHost.router8.ppp[2].queue queueBitLength:vector ETV
attr autoWarmupFilter false
attr interpolationmode sample-hold
attr recordingmode vector
attr source "warmup(atomic(constant0(packetPushEnded) + sum(packetLength(packetPushStarted)) - sum(packetLength(packetPulled)) - sum(packetLength(packetRemoved)) - sum(packetLength(packetDropped))))"
attr title "queue bit length"
attr unit b
vector 149 singleMecHost.router8.ppp[2].ppp transmissionState:vector ETV
attr interpolationmode sample-hold
attr recordingmode vector
attr source transmissionStateChanged
attr title "tx state"
vector 150 singleMecHost.mecHost2.virtualisationInfrastructure.pppIf[0].queue queueLength:vector ETV
attr autoWarmupFilter false
attr interpolationmode sample-hold
attr recordingmode vector
attr source "warmup(atomic(constant0(packetPushEnded) + count(packetPushStarted) - count(packetPulled) - count(packetRemoved) - count(packetDropped)))"
attr title "queue length"
attr unit pk
vector 151 singleMecHost.mecHost2.virtualisationInfrastructure.pppIf[0].queue queueBitLength:vector ETV
attr autoWarmupFilter false
attr interpolationmode sample-hold
attr recordingmode vector
attr source "warmup(atomic(constant0(packetPushEnded) + sum(packetLength(packetPushStarted)) - sum(packetLength(packetPulled)) - sum(packetLength(packetRemoved)) - sum(packetLength(packetDropped))))"
attr title "queue bit length"
attr unit b
vector 152 singleMecHost.mecHost2.virtualisationInfrastructure.pppIf[0].ppp transmissionState:vector ETV
attr interpolationmode sample-hold
attr recordingmode vector
attr source transmissionStateChanged
attr title "tx state"
vector 153 singleMecHost.mecHost2.virtualisationInfrastructure.udp passedUpPk:vector(count) ETV
attr interpolationmode none
attr recordingmode vector(count)
attr source packetSentToUpper
attr title "packets passed up, count"
vector 154 singleMecHost.mecHost2.virtualisationInfrastructure.udp droppedPkWrongPort:vector(count) ETV
attr interpolationmode none
attr recordingmode vector(count)
attr source packetDropReasonIsNoPortFound(packetDropped)
attr title "packets dropped (wrong port), count"
vector 155 singleMecHost.mecHost2.virtualisationInfrastructure.udp droppedPkBadChecksum:vector(count) ETV
attr interpolationmode none
attr recordingmode vector(count)
attr source packetDropReasonIsIncorrectlyReceived(packetDropped)
attr title "packets dropped (checksum error), count"
vector 156 singleMecHost.mecHost2.upf_mec.ppp[0].queue queueLength:vector ETV
attr autoWarmupFilter false
attr interpolationmode sample-hold
attr recordingmode vector
attr source "warmup(atomic(constant0(packetPushEnded) + count(packetPushStarted) - count(packetPulled) - count(packetRemoved) - count(packetDropped)))"
attr title "queue length"
attr unit pk
vector 157 singleMecHost.mecHost2.upf_mec.ppp[0].queue queueBitLength:vector ETV
attr autoWarmupFilter false
attr interpolationmode sample-hold
attr recordingmode vector
attr source "warmup(atomic(constant0(packetPushEnded) + sum(packetLength(packetPushStarted)) - sum(packetLength(packetPulled)) - sum(packetLength(packetRemoved)) - sum(packetLength(packetDropped))))"
attr title "queue bit length"
attr unit b
vector 158 singleMecHost.mecHost2.upf_mec.ppp[0].ppp transmissionState:vector ETV
attr interpolationmode sample-hold
attr recordingmode vector
attr source transmissionStateChanged
attr title "tx state"
vector 159 singleMecHost.mecHost2.upf_mec.pppIf.queue queueLength:vector ETV
attr autoWarmupFilter false
attr interpolationmode sample-hold
attr recordingmode vector
attr source "warmup(atomic(constant0(packetPushEnded) + count(packetPushStarted) - count(packetPulled) - count(packetRemoved) - count(packetDropped)))"
attr title "queue length"
attr unit pk
vector 160 singleMecHost.mecHost2.upf_mec.pppIf.queue queueBitLength:vector ETV
attr autoWarmupFilter false
attr interpolationmode sample-hold
attr recordingmode vector
attr source "warmup(atomic(constant0(packetPushEnded) + sum(packetLength(packetPushStarted)) - sum(packetLength(packetPulled)) - sum(packetLength(packetRemoved)) - sum(packetLength(packetDropped))))"
attr title "queue bit length"
attr unit b
vector 161 singleMecHost.mecHost2.upf_mec.pppIf.ppp transmissionState:vector ETV
attr interpolationmode sample-hold
attr recordingmode vector
attr source transmissionStateChanged
attr title "tx state"
vector 162 singleMecHost.mecHost2.upf_mec.udp passedUpPk:vector(count) ETV
attr interpolationmode none
attr recordingmode vector(count)
attr source packetSentToUpper
attr title "packets passed up, count"
vector 163 singleMecHost.mecHost2.upf_mec.udp droppedPkWrongPort:vector(count) ETV
attr interpolationmode none
attr recordingmode vector(count)
attr source packetDropReasonIsNoPortFound(packetDropped)
attr title "packets dropped (wrong port), count"
vector 164 singleMecHost.mecHost2.upf_mec.udp droppedPkBadChecksum:vector(count) ETV
attr interpolationmode none
attr recordingmode vector(count)
attr source packetDropReasonIsIncorrectlyReceived(packetDropped)
attr title "packets dropped (checksum error), count"
vector 165 singleMecHost.ualcmp.pppIf.queue queueLength:vector ETV
attr autoWarmupFilter false
attr interpolationmode sample-hold
attr recordingmode vector
attr source "warmup(atomic(constant0(packetPushEnded) + count(packetPushStarted) - count(packetPulled) - count(packetRemoved) - count(packetDropped)))"
attr title "queue length"
attr unit pk
vector 166 singleMecHost.ualcmp.pppIf.queue queueBitLength:vector ETV
attr autoWarmupFilter false
attr interpolationmode sample-hold
attr recordingmode vector
attr source "warmup(atomic(constant0(packetPushEnded) + sum(packetLength(packetPushStarted)) - sum(packetLength(packetPulled)) - sum(packetLength(packetRemoved)) - sum(packetLength(packetDropped))))"
attr title "queue bit length"
attr unit b
vector 167 singleMecHost.ualcmp.pppIf.ppp transmissionState:vector ETV
attr interpolationmode sample-hold
attr recordingmode vector
attr source transmissionStateChanged
attr title "tx state"
vector 168 singleMecHost.ualcmp.udp passedUpPk:vector(count) ETV
attr interpolationmode none
attr recordingmode vector(count)
attr source packetSentToUpper
attr title "packets passed up, count"
vector 169 singleMecHost.ualcmp.udp droppedPkWrongPort:vector(count) ETV
attr interpolationmode none
attr recordingmode vector(count)
attr source packetDropReasonIsNoPortFound(packetDropped)
attr title "packets dropped (wrong port), count"
vector 170 singleMecHost.ualcmp.udp droppedPkBadChecksum:vector(count) ETV
attr interpolationmode none
attr recordingmode vector(count)
attr source packetDropReasonIsIncorrectlyReceived(packetDropped)
attr title "packets dropped (checksum error), count"
vector 171 singleMecHost.coreServer1.virtualisationInfrastructure.pppIf[0].queue queueLength:vector ETV
attr autoWarmupFilter false
attr interpolationmode sample-hold
attr recordingmode vector
attr source "warmup(atomic(constant0(packetPushEnded) + count(packetPushStarted) - count(packetPulled) - count(packetRemoved) - count(packetDropped)))"
attr title "queue length"
attr unit pk
vector 172 singleMecHost.coreServer1.virtualisationInfrastructure.pppIf[0].queue queueBitLength:vector ETV
attr autoWarmupFilter false
attr interpolationmode sample-hold
attr recordingmode vector
attr source "warmup(atomic(constant0(packetPushEnded) + sum(packetLength(packetPushStarted)) - sum(packetLength(packetPulled)) - sum(packetLength(packetRemoved)) - sum(packetLength(packetDropped))))"
attr title "queue bit length"
attr unit b
vector 173 singleMecHost.coreServer1.virtualisationInfrastructure.pppIf[0].ppp transmissionState:vector ETV
attr interpolationmode sample-hold
attr recordingmode vector
attr source transmissionStateChanged
attr title "tx state"
vector 174 singleMecHost.coreServer1.virtualisationInfrastructure.udp passedUpPk:vector(count) ETV
attr interpolationmode none
attr recordingmode vector(count)
attr source packetSentToUpper
attr title "packets passed up, count"
vector 175 singleMecHost.coreServer1.virtualisationInfrastructure.udp droppedPkWrongPort:vector(count) ETV
attr interpolationmode none
attr recordingmode vector(count)
attr source packetDropReasonIsNoPortFound(packetDropped)
attr title "packets dropped (wrong port), count"
vector 176 singleMecHost.coreServer1.virtualisationInfrastructure.udp droppedPkBadChecksum:vector(count) ETV
attr interpolationmode none
attr recordingmode vector(count)
attr source packetDropReasonIsIncorrectlyReceived(packetDropped)
attr title "packets dropped (checksum error), count"
vector 177 singleMecHost.coreServer1.upf_mec.ppp[0].queue queueLength:vector ETV
attr autoWarmupFilter false
attr interpolationmode sample-hold
attr recordingmode vector
attr source "warmup(atomic(constant0(packetPushEnded) + count(packetPushStarted) - count(packetPulled) - count(packetRemoved) - count(packetDropped)))"
attr title "queue length"
attr unit pk
vector 178 singleMecHost.coreServer1.upf_mec.ppp[0].queue queueBitLength:vector ETV
attr autoWarmupFilter false
attr interpolationmode sample-hold
attr recordingmode vector
attr source "warmup(atomic(constant0(packetPushEnded) + sum(packetLength(packetPushStarted)) - sum(packetLength(packetPulled)) - sum(packetLength(packetRemoved)) - sum(packetLength(packetDropped))))"
attr title "queue bit length"
attr unit b
vector 179 singleMecHost.coreServer1.upf_mec.ppp[0].ppp transmissionState:vector ETV
attr interpolationmode sample-hold
attr recordingmode vector
attr source transmissionStateChanged
attr title "tx state"
vector 180 singleMecHost.coreServer1.upf_mec.pppIf.queue queueLength:vector ETV
attr autoWarmupFilter false
attr interpolationmode sample-hold
attr recordingmode vector
attr source "warmup(atomic(constant0(packetPushEnded) + count(packetPushStarted) - count(packetPulled) - count(packetRemoved) - count(packetDropped)))"
attr title "queue length"
attr unit pk
vector 181 singleMecHost.coreServer1.upf_mec.pppIf.queue queueBitLength:vector ETV
attr autoWarmupFilter false
attr interpolationmode sample-hold
attr recordingmode vector
attr source "warmup(atomic(constant0(packetPushEnded) + sum(packetLength(packetPushStarted)) - sum(packetLength(packetPulled)) - sum(packetLength(packetRemoved)) - sum(packetLength(packetDropped))))"
attr title "queue bit length"
attr unit b
vector 182 singleMecHost.coreServer1.upf_mec.pppIf.ppp transmissionState:vector ETV
attr interpolationmode sample-hold
attr recordingmode vector
attr source transmissionStateChanged
attr title "tx state"
vector 183 singleMecHost.coreServer1.upf_mec.udp passedUpPk:vector(count) ETV
attr interpolationmode none
attr recordingmode vector(count)
attr source packetSentToUpper
attr title "packets passed up, count"
vector 184 singleMecHost.coreServer1.upf_mec.udp droppedPkWrongPort:vector(count) ETV
attr interpolationmode none
attr recordingmode vector(count)
attr source packetDropReasonIsNoPortFound(packetDropped)
attr title "packets dropped (wrong port), count"
vector 185 singleMecHost.coreServer1.upf_mec.udp droppedPkBadChecksum:vector(count) ETV
attr interpolationmode none
attr recordingmode vector(count)
attr source packetDropReasonIsIncorrectlyReceived(packetDropped)
attr title "packets dropped (checksum error), count"
vector 186 singleMecHost.coreServer2.virtualisationInfrastructure.pppIf[0].queue queueLength:vector ETV
attr autoWarmupFilter false
attr interpolationmode sample-hold
attr recordingmode vector
attr source "warmup(atomic(constant0(packetPushEnded) + count(packetPushStarted) - count(packetPulled) - count(packetRemoved) - count(packetDropped)))"
attr title "queue length"
attr unit pk
vector 187 singleMecHost.coreServer2.virtualisationInfrastructure.pppIf[0].queue queueBitLength:vector ETV
attr autoWarmupFilter false
attr interpolationmode sample-hold
attr recordingmode vector
attr source "warmup(atomic(constant0(packetPushEnded) + sum(packetLength(packetPushStarted)) - sum(packetLength(packetPulled)) - sum(packetLength(packetRemoved)) - sum(packetLength(packetDropped))))"
attr title "queue bit length"
attr unit b
vector 188 singleMecHost.coreServer2.virtualisationInfrastructure.pppIf[0].ppp transmissionState:vector ETV
attr interpolationmode sample-hold
attr recordingmode vector
attr source transmissionStateChanged
attr title "tx state"
vector 189 singleMecHost.coreServer2.virtualisationInfrastructure.udp passedUpPk:vector(count) ETV
attr interpolationmode none
attr recordingmode vector(count)
attr source packetSentToUpper
attr title "packets passed up, count"
vector 190 singleMecHost.coreServer2.virtualisationInfrastructure.udp droppedPkWrongPort:vector(count) ETV
attr interpolationmode none
attr recordingmode vector(count)
attr source packetDropReasonIsNoPortFound(packetDropped)
attr title "packets dropped (wrong port), count"
vector 191 singleMecHost.coreServer2.virtualisationInfrastructure.udp droppedPkBadChecksum:vector(count) ETV
attr interpolationmode none
attr recordingmode vector(count)
attr source packetDropReasonIsIncorrectlyReceived(packetDropped)
attr title "packets dropped (checksum error), count"
vector 192 singleMecHost.coreServer2.upf_mec.ppp[0].queue queueLength:vector ETV
attr autoWarmupFilter false
attr interpolationmode sample-hold
attr recordingmode vector
attr source "warmup(atomic(constant0(packetPushEnded) + count(packetPushStarted) - count(packetPulled) - count(packetRemoved) - count(packetDropped)))"
attr title "queue length"
attr unit pk
vector 193 singleMecHost.coreServer2.upf_mec.ppp[0].queue queueBitLength:vector ETV
attr autoWarmupFilter false
attr interpolationmode sample-hold
attr recordingmode vector
attr source "warmup(atomic(constant0(packetPushEnded) + sum(packetLength(packetPushStarted)) - sum(packetLength(packetPulled)) - sum(packetLength(packetRemoved)) - sum(packetLength(packetDropped))))"
attr title "queue bit length"
attr unit b
vector 194 singleMecHost.coreServer2.upf_mec.ppp[0].ppp transmissionState:vector ETV
attr interpolationmode sample-hold
attr recordingmode vector
attr source transmissionStateChanged
attr title "tx state"
vector 195 singleMecHost.coreServer2.upf_mec.pppIf.queue queueLength:vector ETV
attr autoWarmupFilter false
attr interpolationmode sample-hold
attr recordingmode vector
attr source "warmup(atomic(constant0(packetPushEnded) + count(packetPushStarted) - count(packetPulled) - count(packetRemoved) - count(packetDropped)))"
attr title "queue length"
attr unit pk
vector 196 singleMecHost.coreServer2.upf_mec.pppIf.queue queueBitLength:vector ETV
attr autoWarmupFilter false
attr interpolationmode sample-hold
attr recordingmode vector
attr source "warmup(atomic(constant0(packetPushEnded) + sum(packetLength(packetPushStarted)) - sum(packetLength(packetPulled)) - sum(packetLength(packetRemoved)) - sum(packetLength(packetDropped))))"
attr title "queue bit length"
attr unit b
vector 197 singleMecHost.coreServer2.upf_mec.pppIf.ppp transmissionState:vector ETV
attr interpolationmode sample-hold
attr recordingmode vector
attr source transmissionStateChanged
attr title "tx state"
vector 198 singleMecHost.coreServer2.upf_mec.udp passedUpPk:vector(count) ETV
attr interpolationmode none
attr recordingmode vector(count)
attr source packetSentToUpper
attr title "packets passed up, count"
vector 199 singleMecHost.coreServer2.upf_mec.udp droppedPkWrongPort:vector(count) ETV
attr interpolationmode none
attr recordingmode vector(count)
attr source packetDropReasonIsNoPortFound(packetDropped)
attr title "packets dropped (wrong port), count"
vector 200 singleMecHost.coreServer2.upf_mec.udp droppedPkBadChecksum:vector(count) ETV
attr interpolationmode none
attr recordingmode vector(count)
attr source packetDropReasonIsIncorrectlyReceived(packetDropped)
attr title "packets dropped (checksum error), count"
vector 201 singleMecHost.coreServer3.virtualisationInfrastructure.pppIf[0].queue queueLength:vector ETV
attr autoWarmupFilter false
attr interpolationmode sample-hold
attr recordingmode vector
attr source "warmup(atomic(constant0(packetPushEnded) + count(packetPushStarted) - count(packetPulled) - count(packetRemoved) - count(packetDropped)))"
attr title "queue length"
attr unit pk
vector 202 singleMecHost.coreServer3.virtualisationInfrastructure.pppIf[0].queue queueBitLength:vector ETV
attr autoWarmupFilter false
attr interpolationmode sample-hold
attr recordingmode vector
attr source "warmup(atomic(constant0(packetPushEnded) + sum(packetLength(packetPushStarted)) - sum(packetLength(packetPulled)) - sum(packetLength(packetRemoved)) - sum(packetLength(packetDropped))))"
attr title "queue bit length"
attr unit b
vector 203 singleMecHost.coreServer3.virtualisationInfrastructure.pppIf[0].ppp transmissionState:vector ETV
attr interpolationmode sample-hold
attr recordingmode vector
attr source transmissionStateChanged
attr title "tx state"
vector 204 singleMecHost.coreServer3.virtualisationInfrastructure.udp passedUpPk:vector(count) ETV
attr interpolationmode none
attr recordingmode vector(count)
attr source packetSentToUpper
attr title "packets passed up, count"
vector 205 singleMecHost.coreServer3.virtualisationInfrastructure.udp droppedPkWrongPort:vector(count) ETV
attr interpolationmode none
attr recordingmode vector(count)
attr source packetDropReasonIsNoPortFound(packetDropped)
attr title "packets dropped (wrong port), count"
vector 206 singleMecHost.coreServer3.virtualisationInfrastructure.udp droppedPkBadChecksum:vector(count) ETV
attr interpolationmode none
attr recordingmode vector(count)
attr source packetDropReasonIsIncorrectlyReceived(packetDropped)
attr title "packets dropped (checksum error), count"
vector 207 singleMecHost.coreServer3.upf_mec.ppp[0].queue queueLength:vector ETV
attr autoWarmupFilter false
attr interpolationmode sample-hold
attr recordingmode vector
attr source "warmup(atomic(constant0(packetPushEnded) + count(packetPushStarted) - count(packetPulled) - count(packetRemoved) - count(packetDropped)))"
attr title "queue length"
attr unit pk
vector 208 singleMecHost.coreServer3.upf_mec.ppp[0].queue queueBitLength:vector ETV
attr autoWarmupFilter false
attr interpolationmode sample-hold
attr recordingmode vector
attr source "warmup(atomic(constant0(packetPushEnded) + sum(packetLength(packetPushStarted)) - sum(packetLength(packetPulled)) - sum(packetLength(packetRemoved)) - sum(packetLength(packetDropped))))"
attr title "queue bit length"
attr unit b
vector 209 singleMecHost.coreServer3.upf_mec.ppp[0].ppp transmissionState:vector ETV
attr interpolationmode sample-hold
attr recordingmode vector
attr source transmissionStateChanged
attr title "tx state"
vector 210 singleMecHost.coreServer3.upf_mec.pppIf.queue queueLength:vector ETV
attr autoWarmupFilter false
attr interpolationmode sample-hold
attr recordingmode vector
attr source "warmup(atomic(constant0(packetPushEnded) + count(packetPushStarted) - count(packetPulled) - count(packetRemoved) - count(packetDropped)))"
attr title "queue length"
attr unit pk
vector 211 singleMecHost.coreServer3.upf_mec.pppIf.queue queueBitLength:vector ETV
attr autoWarmupFilter false
attr interpolationmode sample-hold
attr recordingmode vector
attr source "warmup(atomic(constant0(packetPushEnded) + sum(packetLength(packetPushStarted)) - sum(packetLength(packetPulled)) - sum(packetLength(packetRemoved)) - sum(packetLength(packetDropped))))"
attr title "queue bit length"
attr unit b
vector 212 singleMecHost.coreServer3.upf_mec.pppIf.ppp transmissionState:vector ETV
attr interpolationmode sample-hold
attr recordingmode vector
attr source transmissionStateChanged
attr title "tx state"
vector 213 singleMecHost.coreServer3.upf_mec.udp passedUpPk:vector(count) ETV
attr interpolationmode none
attr recordingmode vector(count)
attr source packetSentToUpper
attr title "packets passed up, count"
vector 214 singleMecHost.coreServer3.upf_mec.udp droppedPkWrongPort:vector(count) ETV
attr interpolationmode none
attr recordingmode vector(count)
attr source packetDropReasonIsNoPortFound(packetDropped)
attr title "packets dropped (wrong port), count"
vector 215 singleMecHost.coreServer3.upf_mec.udp droppedPkBadChecksum:vector(count) ETV
attr interpolationmode none
attr recordingmode vector(count)
attr source packetDropReasonIsIncorrectlyReceived(packetDropped)
attr title "packets dropped (checksum error), count"
vector 216 singleMecHost.coreServer4.virtualisationInfrastructure.pppIf[0].queue queueLength:vector ETV
attr autoWarmupFilter false
attr interpolationmode sample-hold
attr recordingmode vector
attr source "warmup(atomic(constant0(packetPushEnded) + count(packetPushStarted) - count(packetPulled) - count(packetRemoved) - count(packetDropped)))"
attr title "queue length"
attr unit pk
vector 217 singleMecHost.coreServer4.virtualisationInfrastructure.pppIf[0].queue queueBitLength:vector ETV
attr autoWarmupFilter false
attr interpolationmode sample-hold
attr recordingmode vector
attr source "warmup(atomic(constant0(packetPushEnded) + sum(packetLength(packetPushStarted)) - sum(packetLength(packetPulled)) - sum(packetLength(packetRemoved)) - sum(packetLength(packetDropped))))"
attr title "queue bit length"
attr unit b
vector 218 singleMecHost.coreServer4.virtualisationInfrastructure.pppIf[0].ppp transmissionState:vector ETV
attr interpolationmode sample-hold
attr recordingmode vector
attr source transmissionStateChanged
attr title "tx state"
vector 219 singleMecHost.coreServer4.virtualisationInfrastructure.udp passedUpPk:vector(count) ETV
attr interpolationmode none
attr recordingmode vector(count)
attr source packetSentToUpper
attr title "packets passed up, count"
vector 220 singleMecHost.coreServer4.virtualisationInfrastructure.udp droppedPkWrongPort:vector(count) ETV
attr interpolationmode none
attr recordingmode vector(count)
attr source packetDropReasonIsNoPortFound(packetDropped)
attr title "packets dropped (wrong port), count"
vector 221 singleMecHost.coreServer4.virtualisationInfrastructure.udp droppedPkBadChecksum:vector(count) ETV
attr interpolationmode none
attr recordingmode vector(count)
attr source packetDropReasonIsIncorrectlyReceived(packetDropped)
attr title "packets dropped (checksum error), count"
vector 222 singleMecHost.coreServer4.upf_mec.ppp[0].queue queueLength:vector ETV
attr autoWarmupFilter false
attr interpolationmode sample-hold
attr recordingmode vector
attr source "warmup(atomic(constant0(packetPushEnded) + count(packetPushStarted) - count(packetPulled) - count(packetRemoved) - count(packetDropped)))"
attr title "queue length"
attr unit pk
vector 223 singleMecHost.coreServer4.upf_mec.ppp[0].queue queueBitLength:vector ETV
attr autoWarmupFilter false
attr interpolationmode sample-hold
attr recordingmode vector
attr source "warmup(atomic(constant0(packetPushEnded) + sum(packetLength(packetPushStarted)) - sum(packetLength(packetPulled)) - sum(packetLength(packetRemoved)) - sum(packetLength(packetDropped))))"
attr title "queue bit length"
attr unit b
vector 224 singleMecHost.coreServer4.upf_mec.ppp[0].ppp transmissionState:vector ETV
attr interpolationmode sample-hold
attr recordingmode vector
attr source transmissionStateChanged
attr title "tx state"
vector 225 singleMecHost.coreServer4.upf_mec.pppIf.queue queueLength:vector ETV
attr autoWarmupFilter false
attr interpolationmode sample-hold
attr recordingmode vector
attr source "warmup(atomic(constant0(packetPushEnded) + count(packetPushStarted) - count(packetPulled) - count(packetRemoved) - count(packetDropped)))"
attr title "queue length"
attr unit pk
vector 226 singleMecHost.coreServer4.upf_mec.pppIf.queue queueBitLength:vector ETV
attr autoWarmupFilter false
attr interpolationmode sample-hold
attr recordingmode vector
attr source "warmup(atomic(constant0(packetPushEnded) + sum(packetLength(packetPushStarted)) - sum(packetLength(packetPulled)) - sum(packetLength(packetRemoved)) - sum(packetLength(packetDropped))))"
attr title "queue bit length"
attr unit b
vector 227 singleMecHost.coreServer4.upf_mec.pppIf.ppp transmissionState:vector ETV
attr interpolationmode sample-hold
attr recordingmode vector
attr source transmissionStateChanged
attr title "tx state"
vector 228 singleMecHost.coreServer4.upf_mec.udp passedUpPk:vector(count) ETV
attr interpolationmode none
attr recordingmode vector(count)
attr source packetSentToUpper
attr title "packets passed up, count"
vector 229 singleMecHost.coreServer4.upf_mec.udp droppedPkWrongPort:vector(count) ETV
attr interpolationmode none
attr recordingmode vector(count)
attr source packetDropReasonIsNoPortFound(packetDropped)
attr title "packets dropped (wrong port), count"
vector 230 singleMecHost.coreServer4.upf_mec.udp droppedPkBadChecksum:vector(count) ETV
attr interpolationmode none
attr recordingmode vector(count)
attr source packetDropReasonIsIncorrectlyReceived(packetDropped)
attr title "packets dropped (checksum error), count"
vector 231 singleMecHost.ue[0].cellularNic.phy servingCell:vector ETV
attr recordingmode vector
attr source servingCell
attr title "ID of the serving eNodeB for the UE"
attr unit ""
vector 232 singleMecHost.ue[0].cellularNic.nrChannelModel[0] distance:vector ETV
attr recordingmode vector
attr source distance
attr title "distance between UE and serving base station"
attr unit meters
vector 233 singleMecHost.ue[0].cellularNic.nrPhy servingCell:vector ETV
attr recordingmode vector
attr source servingCell
attr title "ID of the serving eNodeB for the UE"
attr unit ""
vector 234 singleMecHost.ue[1].cellularNic.phy servingCell:vector ETV
attr recordingmode vector
attr source servingCell
attr title "ID of the serving eNodeB for the UE"
attr unit ""
vector 235 singleMecHost.ue[1].cellularNic.nrChannelModel[0] distance:vector ETV
attr recordingmode vector
attr source distance
attr title "distance between UE and serving base station"
attr unit meters
vector 236 singleMecHost.ue[1].cellularNic.nrPhy servingCell:vector ETV
attr recordingmode vector
attr source servingCell
attr title "ID of the serving eNodeB for the UE"
attr unit ""
vector 237 singleMecHost.ue[2].cellularNic.phy servingCell:vector ETV
attr recordingmode vector
attr source servingCell
attr title "ID of the serving eNodeB for the UE"
attr unit ""
vector 238 singleMecHost.ue[2].cellularNic.nrChannelModel[0] distance:vector ETV
attr recordingmode vector
attr source distance
attr title "distance between UE and serving base station"
attr unit meters
vector 239 singleMecHost.ue[2].cellularNic.nrPhy servingCell:vector ETV
attr recordingmode vector
attr source servingCell
attr title "ID of the serving eNodeB for the UE"
attr unit ""
vector 240 singleMecHost.ue[0].tcp.conn-91 tcpRcvQueueBytes:vector ETV
attr interpolationmode sample-hold
attr recordingmode vector
vector 241 singleMecHost.ue[0].tcp.conn-91 rcvAdv:vector ETV
attr interpolationmode sample-hold
attr recordingmode vector
vector 242 singleMecHost.ue[0].tcp.conn-91 rcvWnd:vector ETV
attr interpolationmode sample-hold
attr recordingmode vector
vector 243 singleMecHost.ue[0].tcp.conn-91 sndAck:vector ETV
attr interpolationmode sample-hold
attr recordingmode vector
vector 244 singleMecHost.ue[1].tcp.conn-92 tcpRcvQueueBytes:vector ETV
attr interpolationmode sample-hold
[...]
391	11873	1.1030013308	528
391	11892	1.10300147	528
391	11911	1.1030016092	528
392	11112	1.084006919738	0
392	11140	1.084009095566	0
392	11190	1.084011581122	0
392	11873	1.1030013308	0
392	11892	1.10300147	0
392	11911	1.1030016092	0
393	11112	1.084006919738	4112
393	11140	1.084009095566	4112
393	11190	1.084011581122	4112
393	11873	1.1030013308	528
393	11892	1.10300147	528
393	11911	1.1030016092	528
394	11112	1.084006919738	521
394	11140	1.084009095566	521
394	11190	1.084011581122	521
394	11873	1.1030013308	73
394	11892	1.10300147	73
394	11911	1.1030016092	73
395	11177	1.084011143122	65989
396	11785	1.0980012192	65535
397	11177	1.084011143122	0
398	11177	1.084011143122	65535
399	11177	1.084011143122	454
400	11114	1.084007386538	521
400	11146	1.084009562366	521
400	11196	1.084012047922	521
400	11886	1.1030014392	73
400	11905	1.1030015784	73
400	11921	1.1030017176	73
401	11114	1.084007386538	514
401	11146	1.084009562366	514
401	11196	1.084012047922	514
401	11886	1.1030014392	66
401	11905	1.1030015784	66
401	11921	1.1030017176	66
402	11116	1.084007386538	4112
402	11148	1.084009562366	4112
402	11198	1.084012047922	4112
402	11888	1.1030014392	528
402	11907	1.1030015784	528
402	11923	1.1030017176	528
403	11116	1.084007386538	0
403	11148	1.084009562366	0
403	11198	1.084012047922	0
403	11888	1.1030014392	0
403	11907	1.1030015784	0
403	11923	1.1030017176	0
404	11116	1.084007386538	4112
404	11148	1.084009562366	4112
404	11198	1.084012047922	4112
404	11888	1.1030014392	528
404	11907	1.1030015784	528
404	11923	1.1030017176	528
405	11116	1.084007386538	521
405	11148	1.084009562366	521
405	11198	1.084012047922	521
405	11888	1.1030014392	73
405	11907	1.1030015784	73
405	11923	1.1030017176	73
406	10522	1.0340037796	83
406	11118	1.084007853338	521
406	11154	1.084010029166	521
406	11210	1.084012514722	521
406	11901	1.1030015476	73
406	11917	1.1030016868	73
406	11933	1.103001826	73
407	10522	1.0340037796	76
407	11118	1.084007853338	514
407	11154	1.084010029166	514
407	11210	1.084012514722	514
407	11901	1.1030015476	66
407	11917	1.1030016868	66
407	11933	1.103001826	66
408	10524	1.0340037796	608
408	11120	1.084007853338	4112
408	11156	1.084010029166	4112
408	11212	1.084012514722	4112
408	11903	1.1030015476	528
408	11919	1.1030016868	528
408	11935	1.103001826	528
409	10524	1.0340037796	0
409	11120	1.084007853338	0
409	11156	1.084010029166	0
409	11212	1.084012514722	0
409	11903	1.1030015476	0
409	11919	1.1030016868	0
409	11935	1.103001826	0
410	10524	1.0340037796	608
410	11120	1.084007853338	4112
410	11156	1.084010029166	4112
410	11212	1.084012514722	4112
410	11903	1.1030015476	528
410	11919	1.1030016868	528
410	11935	1.103001826	528
411	10524	1.0340037796	83
411	11120	1.084007853338	521
411	11156	1.084010029166	521
411	11212	1.084012514722	521
411	11903	1.1030015476	73
411	11919	1.1030016868	73
411	11935	1.103001826	73
412	10530	1.034003896	83
412	11122	1.084008320138	521
412	11168	1.084010495966	521
412	11214	1.084012981522	521
412	11913	1.103001656	73
412	11929	1.1030017952	73
412	11945	1.1030019344	73
413	10530	1.034003896	76
413	11122	1.084008320138	514
413	11168	1.084010495966	514
413	11214	1.084012981522	514
413	11913	1.103001656	66
413	11929	1.1030017952	66
413	11945	1.1030019344	66
414	10532	1.034003896	608
414	11124	1.084008320138	4112
414	11170	1.084010495966	4112
414	11216	1.084012981522	4112
414	11915	1.103001656	528
414	11931	1.1030017952	528
414	11947	1.1030019344	528
415	10532	1.034003896	0
415	11124	1.084008320138	0
415	11170	1.084010495966	0
415	11216	1.084012981522	0
415	11915	1.103001656	0
415	11931	1.1030017952	0
415	11947	1.1030019344	0
416	10532	1.034003896	608
416	11124	1.084008320138	4112
416	11170	1.084010495966	4112
416	11216	1.084012981522	4112
416	11915	1.103001656	528
416	11931	1.1030017952	528
416	11947	1.1030019344	528
417	10532	1.034003896	83
417	11124	1.084008320138	521
417	11170	1.084010495966	521
417	11216	1.084012981522	521
417	11915	1.103001656	73
417	11931	1.1030017952	73
417	11947	1.1030019344	73
418	10538	1.0340040124	83
418	11131	1.084008786938	521
418	11172	1.084010962766	521
418	11218	1.084013448322	521
418	11925	1.1030017644	73
418	11941	1.1030019036	73
418	11957	1.1030020428	73
419	10538	1.0340040124	76
419	11131	1.084008786938	514
419	11172	1.084010962766	514
419	11218	1.084013448322	514
419	11925	1.1030017644	66
419	11941	1.1030019036	66
419	11957	1.1030020428	66
420	10540	1.0340040124	608
420	11133	1.084008786938	4112
420	11174	1.084010962766	4112
420	11220	1.084013448322	4112
420	11927	1.1030017644	528
420	11943	1.1030019036	528
420	11959	1.1030020428	528
421	10540	1.0340040124	0
421	11133	1.084008786938	0
421	11174	1.084010962766	0
421	11220	1.084013448322	0
421	11927	1.1030017644	0
421	11943	1.1030019036	0
421	11959	1.1030020428	0
422	10540	1.0340040124	608
422	11133	1.084008786938	4112
422	11174	1.084010962766	4112
422	11220	1.084013448322	4112
422	11927	1.1030017644	528
422	11943	1.1030019036	528
422	11959	1.1030020428	528
423	10540	1.0340040124	83
423	11133	1.084008786938	521
423	11174	1.084010962766	521
423	11220	1.084013448322	521
423	11927	1.1030017644	73
423	11943	1.1030019036	73
423	11959	1.1030020428	73
424	10525	1.03400382	83
424	10551	1.0340041288	83
424	11142	1.084009253738	521
424	11181	1.084011429566	521
424	11222	1.084013915122	521
424	11937	1.1030018728	73
424	11953	1.103002012	73
424	11974	1.1030021512	73
425	10525	1.03400382	76
425	10551	1.0340041288	76
425	11142	1.084009253738	514
425	11181	1.084011429566	514
425	11222	1.084013915122	514
425	11937	1.1030018728	66
425	11953	1.103002012	66
425	11974	1.1030021512	66
426	10527	1.03400382	608
426	10553	1.0340041288	608
426	11144	1.084009253738	4112
426	11183	1.084011429566	4112
426	11224	1.084013915122	4112
426	11939	1.1030018728	528
426	11955	1.103002012	528
426	11976	1.1030021512	528
427	10527	1.03400382	0
427	10553	1.0340041288	0
427	11144	1.084009253738	0
427	11183	1.084011429566	0
427	11224	1.084013915122	0
427	11939	1.1030018728	0
427	11955	1.103002012	0
427	11976	1.1030021512	0
428	10527	1.03400382	608
428	10553	1.0340041288	608
428	11144	1.084009253738	4112
428	11183	1.084011429566	4112
428	11224	1.084013915122	4112
428	11939	1.1030018728	528
428	11955	1.103002012	528
428	11976	1.1030021512	528
429	10527	1.03400382	83
429	10553	1.0340041288	83
429	11144	1.084009253738	521
429	11183	1.084011429566	521
429	11224	1.084013915122	521
429	11939	1.1030018728	73
429	11955	1.103002012	73
429	11976	1.1030021512	73
430	10533	1.0340039364	83
430	10555	1.0340042452	83
430	11150	1.084009720538	521
430	11192	1.084011896366	521
430	11226	1.084014381922	521
430	11949	1.1030019812	73
430	11971	1.1030021204	73
430	11988	1.1030022596	73
431	10533	1.0340039364	76
431	10555	1.0340042452	76
431	11150	1.084009720538	514
431	11192	1.084011896366	514
431	11226	1.084014381922	514
431	11949	1.1030019812	66
431	11971	1.1030021204	66
431	11988	1.1030022596	66
432	10535	1.0340039364	608
432	10557	1.0340042452	608
432	11152	1.084009720538	4112
432	11194	1.084011896366	4112
432	11228	1.084014381922	4112
432	11951	1.1030019812	528
432	11973	1.1030021204	528
432	11990	1.1030022596	528
433	10535	1.0340039364	0
433	10557	1.0340042452	0
433	11152	1.084009720538	0
433	11194	1.084011896366	0
433	11228	1.084014381922	0
433	11951	1.1030019812	0
433	11973	1.1030021204	0
433	11990	1.1030022596	0
434	10535	1.0340039364	608
434	10557	1.0340042452	608
434	11152	1.084009720538	4112
434	11194	1.084011896366	4112
434	11228	1.084014381922	4112
434	11951	1.1030019812	528
434	11973	1.1030021204	528
434	11990	1.1030022596	528
435	10535	1.0340039364	83
435	10557	1.0340042452	83
435	11152	1.084009720538	521
435	11194	1.084011896366	521
435	11228	1.084014381922	521
435	11951	1.1030019812	73
435	11973	1.1030021204	73
435	11990	1.1030022596	73
436	10541	1.0340040528	83
436	10559	1.0340043616	83
436	11158	1.084010187338	521
436	11200	1.084012363166	521
436	11230	1.084014848722	521
436	11961	1.1030020896	73
436	11979	1.1030022288	73
436	11992	1.103002368	73
437	10541	1.0340040528	76
437	10559	1.0340043616	76
437	11158	1.084010187338	514
437	11200	1.084012363166	514
437	11230	1.084014848722	514
437	11961	1.1030020896	66
437	11979	1.1030022288	66
437	11992	1.103002368	66
438	10543	1.0340040528	56
438	10561	1.0340043616	56
438	11160	1.084010187338	494
438	11202	1.084012363166	494
438	11232	1.084014848722	494
438	11963	1.1030020896	46
438	11981	1.1030022288	46
438	11994	1.103002368	46
439	10546	1.0340040528	40
439	10564	1.0340043616	40
439	11163	1.084010187338	478
439	11205	1.084012363166	478
439	11235	1.084014848722	478
439	11966	1.1030020896	30
439	11984	1.1030022288	30
439	11997	1.103002368	30
440	10546	1.0340040528	41
440	10564	1.0340043616	41
440	11163	1.084010187338	479
440	11205	1.084012363166	479
440	11235	1.084014848722	479
440	11966	1.1030020896	31
440	11984	1.1030022288	31
440	11997	1.103002368	31
441	10547	1.0340040528	41
441	10565	1.0340043616	41
441	11164	1.084010187338	479
441	11206	1.084012363166	479
441	11236	1.084014848722	479
441	11967	1.1030020896	31
441	11985	1.1030022288	31
441	11998	1.103002368	31
442	10520	1.034003744	43
442	10549	1.0340040528	43
442	10567	1.0340043616	43
442	10623	1.035	43
442	10624	1.035	43
442	10625	1.035	43
442	11166	1.084010187338	481
442	11208	1.084012363166	481
442	11238	1.084014848722	481
442	11249	1.085	481
442	11250	1.085	481
442	11251	1.085	481
442	11969	1.1030020896	33
442	11987	1.1030022288	33
442	12000	1.103002368	33
442	12011	1.104	33
442	12012	1.104	33
442	12013	1.104	33
443	10617	1.035	0
443	10618	1.035	0
443	10619	1.035	0
443	11243	1.085	0
443	11244	1.085	0
443	11245	1.085	0
443	12005	1.104	0
443	12006	1.104	0
443	12007	1.104	0
444	10617	1.035	43
444	10618	1.035	43
444	10619	1.035	43
444	11243	1.085	481
444	11244	1.085	481
444	11245	1.085	481
444	12005	1.104	33
444	12006	1.104	33
444	12007	1.104	33
445	10637	1.035	0
445	11811	1.099	0
446	10637	1.035	0
446	11811	1.099	0
447	10637	1.035	1
447	11811	1.099	1
448	10639	1.035	0
448	11813	1.099	0
449	10639	1.035	0
449	11813	1.099	0
450	10639	1.035	1
450	11813	1.099	1
451	10641	1.035	0
451	11815	1.099	0
452	10641	1.035	0
452	11815	1.099	0
453	10641	1.035	1
453	11815	1.099	1
454	10650	1.036	15
454	11270	1.086	15
454	12032	1.105	15
455	10650	1.036	55.546755311442
455	11270	1.086	61.306021482791
455	12032	1.105	63.372730279971
456	10652	1.036	15
456	11272	1.086	15
456	12034	1.105	15
457	10652	1.036	65.53900989484
457	11272	1.086	68.57368670111
457	12034	1.105	64.430079583821
458	10654	1.036	15
458	11274	1.086	15
458	12036	1.105	15
459	10654	1.036	58.323178459808
459	11274	1.086	54.128814580846
459	12036	1.105	53.412169887847
460	10674	1.039	0.004
460	10683	1.039	0.004
460	10692	1.039	0.004
460	11294	1.089	0.004
460	11310	1.089	0.004
460	11326	1.089	0.004
460	12056	1.108	0.004
460	12066	1.108	0.004
460	12076	1.108	0.004
461	10677	1.039	43
461	11297	1.089	481
461	12059	1.108	33
462	10677	1.039	0
462	11297	1.089	0
462	12059	1.108	0
463	10677	1.039	0.004
463	11297	1.089	0.004
463	12059	1.108	0.004
464	10677	1.039	481.23195380173
464	11297	1.089	898.9898989899
464	12059	1.108	27.978339350181
465	10677	1.039	0
465	11297	1.089	0
465	12059	1.108	0
466	10677	1.039	0.004996256
466	11297	1.089	0.004989812662
466	12059	1.108	0.0049979104
467	10677	1.039	41
467	11297	1.089	479
467	12059	1.108	31
468	10677	1.039	0
468	11297	1.089	0
468	12059	1.108	0
469	10678	1.039	41
469	11298	1.089	479
469	12060	1.108	31
470	10678	1.039	40
470	11298	1.089	478
470	12060	1.108	30
471	10681	1.039	2579
471	11301	1.089	2579
472	10681	1.039	454
472	11301	1.089	454
473	10681	1.039	0
473	11301	1.089	438
474	10681	1.039	65535
475	10686	1.039	43
475	11313	1.089	481
475	12069	1.108	33
476	10686	1.039	0
476	11313	1.089	0
476	12069	1.108	0
477	10686	1.039	0.004
477	11313	1.089	0.004
477	12069	1.108	0.004
478	10686	1.039	481.23195380173
478	11313	1.089	898.9898989899
478	12069	1.108	27.978339350181
479	10686	1.039	0
479	11313	1.089	0
479	12069	1.108	0
480	10686	1.039	0.0049959472
480	11313	1.089	0.004987636834
480	12069	1.108	0.0049977712
481	10686	1.039	41
481	11313	1.089	479
481	12069	1.108	31
482	10686	1.039	0
482	11313	1.089	0
482	12069	1.108	0
483	10687	1.039	41
483	11314	1.089	479
483	12070	1.108	31
484	10687	1.039	40
484	11314	1.089	478
484	12070	1.108	30
485	10690	1.039	2579
485	11317	1.089	2579
486	10690	1.039	454
486	11317	1.089	454
487	10690	1.039	0
487	11317	1.089	438
488	10690	1.039	65535
489	10695	1.039	43
489	11329	1.089	481
489	12079	1.108	33
490	10695	1.039	0
490	11329	1.089	0
490	12079	1.108	0
491	10695	1.039	0.004
491	11329	1.089	0.004
491	12079	1.108	0.004
492	10695	1.039	481.23195380173
492	11329	1.089	898.9898989899
492	12079	1.108	27.978339350181
493	10695	1.039	0
493	11329	1.089	0
493	12079	1.108	0
494	10695	1.039	0.0049956384
494	11329	1.089	0.004985151278
494	12079	1.108	0.004997632
495	10695	1.039	41
495	11329	1.089	479
495	12079	1.108	31
496	10695	1.039	0
496	11329	1.089	0
496	12079	1.108	0
497	10696	1.039	41
497	11330	1.089	479
497	12080	1.108	31
498	10696	1.039	40
498	11330	1.089	478
498	12080	1.108	30
499	10699	1.039	2579
499	11333	1.089	2579
500	10699	1.039	454
500	11333	1.089	454
501	10699	1.039	0
501	11333	1.089	438
502	10699	1.039	65535
503	10714	1.04	0
503	11355	1.09	0
503	12095	1.109	0
504	10714	1.04	0
504	11355	1.09	0
504	12095	1.109	0
505	10714	1.04	1
505	11355	1.09	1
505	12095	1.109	1
506	10716	1.04	0
506	11357	1.09	0
506	12097	1.109	0
507	10716	1.04	0
507	11357	1.09	0
507	12097	1.109	0
508	10716	1.04	1
508	11357	1.09	1
508	12097	1.109	1
509	10718	1.04	0
509	11359	1.09	0
509	12099	1.109	0
510	10718	1.04	0
510	11359	1.09	0
510	12099	1.109	0
511	10718	1.04	1
511	11359	1.09	1
511	12099	1.109	1
512	11722	1.0980009024	454
513	11722	1.0980009024	3017
514	11722	1.0980009024	0
515	11103	1.084006481738	438
515	11722	1.0980009024	0
516	11757	1.09800108	454
517	11757	1.09800108	3017
518	11757	1.09800108	0
519	11127	1.084008657566	438
519	11757	1.09800108	0
520	11785	1.0980012192	454
521	11785	1.0980012192	3017
522	11785	1.0980012192	0
523	11177	1.084011143122	438
523	11785	1.0980012192	0
524	11411	1.094	35
524	11429	1.094	28
525	11412	1.094	35
525	11430	1.094	28
526	11413	1.094	35
526	11431	1.094	28
527	11417	1.094	55
528	11417	1.094	55
529	11418	1.094	55
530	11418	1.094	55
531	11419	1.094	55
532	11419	1.094	55
533	11423	1.094	35
533	12063	1.108	10
534	11424	1.094	35
534	12073	1.108	10
535	11425	1.094	35
535	12083	1.108	10
537	10681	1.039	0
539	10690	1.039	0
541	10699	1.039	0
558	11722	1.0980009024	0
561	11873	1.1	256800
562	11873	1.1	256800
563	11757	1.09800108	0
564	11888	1.1	256800
565	11888	1.1	256800
566	11903	1.1	256800
567	11903	1.1	256800
568	11785	1.0980012192	0
569	11915	1.1	256800
570	11915	1.1	256800
571	11927	1.1	256800
572	11927	1.1	256800
573	11939	1.1	256800
574	11939	1.1	256800
575	11951	1.1	256800
576	11951	1.1	256800
577	10568	1.034006481738	3.640138e-06
577	10583	1.034008657566	5.507166e-06
577	10598	1.034011143122	7.683922e-06
578	11103	1.084006481738	2579
579	11127	1.084008657566	2579
580	11177	1.084011143122	2579
581	10681	1.039	0.015
582	10681	1.039	0.003953125
583	10681	1.039	0.577875
584	10681	1.039	2.315453125
585	10681	1.039	1608
586	10681	1.039	4294967295
587	10681	1.039	0
587	11301	1.089	0
588	10690	1.039	0.015
589	10690	1.039	0.003953125
590	10690	1.039	0.577875
591	10690	1.039	2.315453125
592	10690	1.039	1608
593	10690	1.039	4294967295
594	10690	1.039	0
594	11317	1.089	0
595	10699	1.039	0.015
596	10699	1.039	0.003953125
597	10699	1.039	0.577875
598	10699	1.039	2.315453125
599	10699	1.039	1608
600	10699	1.039	4294967295
601	10699	1.039	0
601	11333	1.089	0
602	11722	1.0980009024	0.013994420662
603	11722	1.0980009024	0.0032796235
604	11722	1.0980009024	0.577279756226
605	11722	1.0980009024	2.312398648404
606	11722	1.0980009024	1608
607	11722	1.0980009024	4294967295
608	11757	1.09800108	0.013992422434
609	11757	1.09800108	0.003279166601
610	11757	1.09800108	0.577279328916
611	11757	1.09800108	2.312396482265
612	11757	1.09800108	1608
613	11757	1.09800108	4294967295
614	11785	1.0980012192	0.013990076078
615	11785	1.0980012192	0.003278505744
616	11785	1.0980012192	0.577278720567
617	11785	1.0980012192	2.312393388012
618	11785	1.0980012192	1608
619	11785	1.0980012192	4294967295
624	10574	1.034006481738	48
624	10578	1.034006481738	40
624	10589	1.034008657566	48
624	10593	1.034008657566	40
624	10604	1.034011143122	48
624	10608	1.034011143122	40
625	10574	1.034006481738	48
625	10578	1.034006481738	40
625	10589	1.034008657566	48
625	10593	1.034008657566	40
625	10604	1.034011143122	48
625	10608	1.034011143122	40
643	11726	1.098000926	672
643	11754	1.0980010652	672
643	11782	1.0980012044	672
644	11726	0.1	0
644	11726	0.2	0
644	11726	0.3	0
644	11726	0.4	0
644	11726	0.5	0
644	11726	0.6	0
644	11726	0.7	0
644	11726	0.8	0
644	11726	0.9	0
644	11726	1	0
645	11726	1.098000926	0
645	11754	1.0980010652	0
645	11782	1.0980012044	0
646	11726	1.098000926	672
646	11754	1.0980010652	672
646	11782	1.0980012044	672
647	11726	0.1	0
647	11726	0.2	0
647	11726	0.3	0
647	11726	0.4	0
647	11726	0.5	0
647	11726	0.6	0
647	11726	0.7	0
647	11726	0.8	0
647	11726	0.9	0
647	11726	1	0
648	11726	1.098000926	91
648	11754	1.0980010652	91
648	11782	1.0980012044	91
649	11747	1.0980010488	91
649	11775	1.098001188	91
649	11792	1.0980013272	91
650	11747	1.0980010488	84
650	11775	1.098001188	84
650	11792	1.0980013272	84
651	11749	1.0980010488	64
651	11777	1.098001188	64
651	11794	1.0980013272	64
652	11751	1.0980010488	384
652	11779	1.098001188	384
652	11796	1.0980013272	384
653	11751	0.1	0
653	11751	0.2	0
653	11751	0.3	0
653	11751	0.4	0
653	11751	0.5	0
653	11751	0.6	0
653	11751	0.7	0
653	11751	0.8	0
653	11751	0.9	0
653	11751	1	0
654	11751	1.0980010488	0
654	11779	1.098001188	0
654	11796	1.0980013272	0
655	11751	1.0980010488	384
655	11779	1.098001188	384
655	11796	1.0980013272	384
656	11751	0.1	0
656	11751	0.2	0
656	11751	0.3	0
656	11751	0.4	0
656	11751	0.5	0
656	11751	0.6	0
656	11751	0.7	0
656	11751	0.8	0
656	11751	0.9	0
656	11751	1	0
657	11751	1.0980010488	55
657	11779	1.098001188	55
657	11796	1.0980013272	55
658	11769	1.0980011428	55
658	11788	1.098001282	55
658	11798	1.0980014212	55
659	11769	1.0980011428	48
659	11788	1.098001282	48
659	11798	1.0980014212	48
660	11771	1.0980011428	28
660	11790	1.098001282	28
660	11800	1.0980014212	28
661	11855	1.1030011428	10
661	11867	1.103001282	10
661	11883	1.1030014212	10
662	11857	1.1030011428	240
662	11869	1.103001282	240
662	11885	1.1030014212	240
663	11857	0.1	0
663	11857	0.2	0
663	11857	0.3	0
663	11857	0.4	0
663	11857	0.5	0
663	11857	0.6	0
663	11857	0.7	0
663	11857	0.8	0
663	11857	0.9	0
663	11857	1	0
663	11857	1.1	0
664	11857	1.1030011428	0
664	11869	1.103001282	0
664	11885	1.1030014212	0
665	11857	1.1030011428	240
665	11869	1.103001282	240
665	11885	1.1030014212	240
666	11857	0.1	0
666	11857	0.2	0
666	11857	0.3	0
666	11857	0.4	0
666	11857	0.5	0
666	11857	0.6	0
666	11857	0.7	0
666	11857	0.8	0
666	11857	0.9	0
666	11857	1	0
666	11857	1.1	0
667	11857	1.1030011428	37
667	11869	1.103001282	37
667	11885	1.1030014212	37
668	11859	1.1030012224	37
668	11874	1.1030013616	37
668	11894	1.1030015008	37
669	11859	1.1030012224	30
669	11874	1.1030013616	30
669	11894	1.1030015008	30
670	11862	1.1030012224	46
670	11877	1.1030013616	46
670	11897	1.1030015008	46
671	11864	1.1030012224	528
671	11879	1.1030013616	528
671	11899	1.1030015008	528
672	11864	0.1	0
672	11864	0.2	0
672	11864	0.3	0
672	11864	0.4	0
672	11864	0.5	0
672	11864	0.6	0
672	11864	0.7	0
672	11864	0.8	0
672	11864	0.9	0
672	11864	1	0
672	11864	1.1	0
673	11864	1.1030012224	0
673	11879	1.1030013616	0
673	11899	1.1030015008	0
674	11864	1.1030012224	528
674	11879	1.1030013616	528
674	11899	1.1030015008	528
675	11864	0.1	0
675	11864	0.2	0
675	11864	0.3	0
675	11864	0.4	0
675	11864	0.5	0
675	11864	0.6	0
675	11864	0.7	0
675	11864	0.8	0
675	11864	0.9	0
675	11864	1	0
675	11864	1.1	0
676	11864	1.1030012224	73
676	11879	1.1030013616	73
676	11899	1.1030015008	73
677	11871	1.1030013308	73
677	11890	1.10300147	73
677	11909	1.1030016092	73
678	11871	1.1030013308	66
678	11890	1.10300147	66
678	11909	1.1030016092	66
