version 3
run MultiMec-0-20250316-10:49:07-4156
attr configname MultiMec
attr datetime 20250316-10:49:07
attr datetimef 20250316-104907
attr experiment MultiMec
attr inifile omnetpp.ini
attr iterationvars "$u=0, $numRbs=50, $numUEs=3"
attr iterationvarsd u=0/numRbs=50/numUEs=3
attr iterationvarsf u=0,numRbs=50,numUEs=3-
attr measurement "$u=0, $numRbs=50, $numUEs=3"
attr network multimechost.singleMecHost
attr processid 4156
attr repetition 0
attr replication #0
attr resultdir results
attr runnumber 0
attr seedset 0
itervar numRbs 50
itervar numUEs 3
itervar u 0
config image-path ../../../../inet-4.4.1/images:../../../../simu5g-1.2.1/images
config sim-time-limit 35s
config network multimechost.singleMecHost
config *.carrierAggregation.numComponentCarriers 1
config *.carrierAggregation.componentCarrier[0].numerologyIndex 0
config *.carrierAggregation.componentCarrier[0].carrierFrequency 2GHz
config *.carrierAggregation.componentCarrier[0].numBands 50
config *.gnb1.cellularNic.numCarriers 1
config *.gnb1.cellularNic.channelModel[0].componentCarrierIndex 0
config *.ue[*].cellularNic.numCarriers 1
config *.ue[*].cellularNic.nrChannelModel[0].componentCarrierIndex 0
config *.numUe 3
config *.ue[*].macCellId 0
config *.ue[*].masterId 0
config *.ue[*].nrMacCellId 1
config *.ue[*].nrMasterId 1
config **.dynamicCellAssociation true
config **.enableHandover true
config **.mobility.constraintAreaMinZ 0m
config **.mobility.constraintAreaMaxZ 0m
config *.ue[*].mobility.initFromDisplayString false
config *.ue[*].mobility.typename LinearMobility
config *.ue[*].mobility.updateInterval 0.05s
config *.gNodeB1.mobility.initFromDisplayString true
config **.numUes 7
config **.ue[0].mobility.initialX 120m
config **.ue[0].mobility.initialY 50m
config **.ue[0].mobility.initialMovementHeading 90deg
config **.ue[0].mobility.speed 1mps
config **.ue[1].mobility.initialX 110m
config **.ue[1].mobility.initialY 90m
config **.ue[1].mobility.initialMovementHeading 90deg
config **.ue[1].mobility.speed 3mps
config **.ue[2].mobility.initialX 60m
config **.ue[2].mobility.initialY 130m
config **.ue[2].mobility.initialMovementHeading 90deg
config **.ue[2].mobility.speed 2mps
config **.ue[3].mobility.initialX 280m
config **.ue[3].mobility.initialY 100m
config **.ue[3].mobility.initialMovementHeading 90deg
config **.ue[3].mobility.speed 1mps
config **.ue[4].mobility.initialX 240m
config **.ue[4].mobility.initialY 110m
config **.ue[4].mobility.initialMovementHeading 90deg
config **.ue[4].mobility.speed 1mps
config **.ue[5].mobility.initialX 290m
config **.ue[5].mobility.initialY 130m
config **.ue[5].mobility.initialMovementHeading 90deg
config **.ue[5].mobility.speed 3mps
config **.ue[6].mobility.initialX 240m
config **.ue[6].mobility.initialY 100m
config **.ue[6].mobility.initialMovementHeading 90deg
config **.ue[6].mobility.speed 2mps
config **.mobility.verbose true
config *.ue[0].numApps 2
config *.ue[0].app[0].typename DeviceApp
config *.ue[0].app[0].localPort 4500
config *.ue[0].app[0].UALCMPAddress "\"ualcmp\""
config *.ue[0].app[0].UALCMPPort 1000
config *.ue[0].app[0].appPackageSource "\"ApplicationDescriptors/WarningAlertApp.json\""
config *.ue[0].app[1].typename UEWarningAlertApp
config *.ue[0].app[1].deviceAppAddress "\"ue[\"+string(ancestorIndex(1))+\"]\""
config *.ue[0].app[1].deviceAppPort 4500
config *.ue[0].app[1].startTime 1s
config *.ue[0].app[1].stopTime 35s
config *.ue[1].numApps 2
config *.ue[1].app[0].typename DeviceApp
config *.ue[1].app[0].localPort 4500
config *.ue[1].app[0].UALCMPAddress "\"ualcmp\""
config *.ue[1].app[0].UALCMPPort 1000
config *.ue[1].app[0].appPackageSource "\"ApplicationDescriptors/WarningAlertApp.json\""
config *.ue[1].app[1].typename UEWarningAlertApp
config *.ue[1].app[1].deviceAppAddress "\"ue[\"+string(ancestorIndex(1))+\"]\""
config *.ue[1].app[1].deviceAppPort 4500
config *.ue[1].app[1].startTime 1s
config *.ue[1].app[1].stopTime 35s
config *.ue[2].numApps 2
config *.ue[2].app[0].typename DeviceApp
config *.ue[2].app[0].localPort 4500
config *.ue[2].app[0].UALCMPAddress "\"ualcmp\""
config *.ue[2].app[0].UALCMPPort 1000
config *.ue[2].app[0].appPackageSource "\"ApplicationDescriptors/WarningAlertApp.json\""
config *.ue[2].app[1].typename UEWarningAlertApp
config *.ue[2].app[1].deviceAppAddress "\"ue[\"+string(ancestorIndex(1))+\"]\""
config *.ue[2].app[1].deviceAppPort 4500
config *.ue[2].app[1].startTime 1s
config *.ue[2].app[1].stopTime 35s
config *.ue[3].numApps 2
config *.ue[3].app[0].typename DeviceApp
config *.ue[3].app[0].localPort 4500
config *.ue[3].app[0].UALCMPAddress "\"ualcmp\""
config *.ue[3].app[0].UALCMPPort 1000
config *.ue[3].app[0].appPackageSource "\"ApplicationDescriptors/WarningAlertApp.json\""
config *.ue[3].app[1].typename UEWarningAlertApp
config *.ue[3].app[1].deviceAppAddress "\"ue[\"+string(ancestorIndex(1))+\"]\""
config *.ue[3].app[1].deviceAppPort 4500
config *.ue[3].app[1].startTime 1s
config *.ue[3].app[1].stopTime 35s
config *.ue[4].numApps 2
config *.ue[4].app[0].typename DeviceApp
config *.ue[4].app[0].localPort 4500
config *.ue[4].app[0].UALCMPAddress "\"ualcmp\""
config *.ue[4].app[0].UALCMPPort 1000
config *.ue[4].app[0].appPackageSource "\"ApplicationDescriptors/WarningAlertApp.json\""
config *.ue[4].app[1].typename UEWarningAlertApp
config *.ue[4].app[1].deviceAppAddress "\"ue[\"+string(ancestorIndex(1))+\"]\""
config *.ue[4].app[1].deviceAppPort 4500
config *.ue[4].app[1].startTime 1s
config *.ue[4].app[1].stopTime 35s
config *.ue[5].numApps 2
config *.ue[5].app[0].typename DeviceApp
config *.ue[5].app[0].localPort 4500
config *.ue[5].app[0].UALCMPAddress "\"ualcmp\""
config *.ue[5].app[0].UALCMPPort 1000
config *.ue[5].app[0].appPackageSource "\"ApplicationDescriptors/WarningAlertApp.json\""
config *.ue[5].app[1].typename UEWarningAlertApp
config *.ue[5].app[1].deviceAppAddress "\"ue[\"+string(ancestorIndex(1))+\"]\""
config *.ue[5].app[1].deviceAppPort 4500
config *.ue[5].app[1].startTime 1s
config *.ue[5].app[1].stopTime 35s
config *.ue[6].numApps 2
config *.ue[6].app[0].typename DeviceApp
config *.ue[6].app[0].localPort 4500
config *.ue[6].app[0].UALCMPAddress "\"ualcmp\""
config *.ue[6].app[0].UALCMPPort 1000
config *.ue[6].app[0].appPackageSource "\"ApplicationDescriptors/WarningAlertApp.json\""
config *.ue[6].app[1].typename UEWarningAlertApp
config *.ue[6].app[1].deviceAppAddress "\"ue[\"+string(ancestorIndex(1))+\"]\""
config *.ue[6].app[1].deviceAppPort 4500
config *.ue[6].app[1].startTime 1s
config *.ue[6].app[1].stopTime 35s
config **.hasRNISupport true
config **.tcp.typename Tcp
config **.tcp.advertisedWindow 65535
config **.tcp.tcpAlgorithmClass "\"TcpReno\""
config **.tcp.sackSupport true
config **.mecHost*.virtualisationInfrastructure.ipv4.forwarding true
config *.mecHost1.maxMECApps 100
config *.mecHost1.maxRam 150MB
config *.mecHost1.maxDisk 1000MB
config *.mecHost1.maxCpuSpeed 900
config *.mecHost2.maxMECApps 100
config *.mecHost2.maxRam 40MB
config *.mecHost2.maxDisk 1000MB
config *.mecHost2.maxCpuSpeed 160
config *.coreServer1.maxMECApps 200
config *.coreServer1.maxRam 50GB
config *.coreServer1.maxDisk 500TB
config *.coreServer1.maxCpuSpeed 4000
config *.coreServer2.maxMECApps 300
config *.coreServer2.maxRam 100GB
config *.coreServer2.maxDisk 1000000GB
config *.coreServer2.maxCpuSpeed 4600
config *.coreServer3.maxMECApps 3000
config *.coreServer3.maxRam 1000GB
config *.coreServer3.maxDisk 10000000GB
config *.coreServer3.maxCpuSpeed 46000
config *.coreServer4.maxMECApps 30000
config *.coreServer4.maxRam 10000GB
config *.coreServer4.maxDisk 100000000GB
config *.coreServer4.maxCpuSpeed 460000
config *.mecHost*.bsList "\"gnb1\""
config *.coreServer*.bsList "\"gnb1\""
config *.upf.typename UPF
config *.upf.forwarding true
config *.upf.qosEnabled true
config *.upf.highLatencyThreshold 50ms
config *.upf.routeTable "xmldoc(\"routes.xml\")"
config *.mecHost1.mecPlatform.numMecServices 1
config *.mecHost1.mecPlatform.mecService[0].typename LocationService
config *.mecHost1.mecPlatform.mecService[0].localAddress "\"mecHost1.virtualisationInfrastructure\""
config *.mecHost1.mecPlatform.mecService[0].localPort 10020
config *.mecHost1.mecPlatform.serviceRegistry.localAddress "\"mecHost1.virtualisationInfrastructure\""
config *.mecHost1.mecPlatform.serviceRegistry.localPort 10021
config *.mecHost2.mecPlatform.numMecServices 1
config *.mecHost2.mecPlatform.mecService[0].typename LocationService
config *.mecHost2.mecPlatform.mecService[0].localAddress "\"mecHost2.virtualisationInfrastructure\""
config *.mecHost2.mecPlatform.mecService[0].localPort 10022
config *.mecHost2.mecPlatform.serviceRegistry.localAddress "\"mecHost2.virtualisationInfrastructure\""
config *.mecHost2.mecPlatform.serviceRegistry.localPort 10023
config *.mecHost1.mecPlatform.serviceRegistry.rng-0 0
config *.mecHost1.mecPlatform.serviceRegistry.rng-1 1
config *.mecHost1.mecPlatform.mecService[0].rng-0 0
config *.mecHost1.mecPlatform.mecService[0].rng-1 1
config *.mecHost1.mecPlatform.mecService[0].requestServiceTime 20us
config *.mecHost1.mecPlatform.mecService[0].subscriptionServiceTime 11us
config *.mecHost2.mecPlatform.serviceRegistry.rng-0 0
config *.mecHost2.mecPlatform.serviceRegistry.rng-1 1
config *.mecHost2.mecPlatform.mecService[0].rng-0 0
config *.mecHost2.mecPlatform.mecService[0].rng-1 1
config *.mecHost2.mecPlatform.mecService[0].requestServiceTime 20us
config *.mecHost2.mecPlatform.mecService[0].subscriptionServiceTime 11us
config *.mecOrchestrator.mecHostList "\"mecHost1, mecHost2, coreServer1, coreServer2, coreServer3, coreServer4 \""
config *.mecOrchestrator.mecApplicationPackageList "\"WarningAlertApp\""
config *.mecHost*.mecPlatformManager.mecOrchestrator "\"mecOrchestrator\""
config *.coreServer*.mecPlatformManager.mecOrchestrator "\"mecOrchestrator\""
config *.mecOrchestrator.loadBalancingAlgorithm "\"random\""
config output-scalar-file-append false
config **.routingRecorder.enabled false
config output-scalar-file "results/MultiMec/$u=0, $numRbs=50, $numUEs=3-0.sca"
config output-vector-file "results/MultiMec/$u=0, $numRbs=50, $numUEs=3-0.vec"
config seed-set 0
config num-rngs 3
config **.sctp.**.scalar-recording false
config **.sctp.**.vector-recording false
config **.vector-recording false
config **.interfaceTable.recordStats true
config **.linkVisualizer.displayLinks true
config **.linkVisualizer.recordLinks true
config **.queue.recordStatistics true
config **.queue.recordDroppedPackets true
config *.playgroundSizeX 1100m
config *.playgroundSizeY 800m
config *.playgroundSizeZ 50m
config **.sctp.nagleEnabled false
config **.sctp.enableHeartbeats false
config **.downlink_interference true
config **.uplink_interference true
config **.ueTxPower 26
config **.eNodeBTxPower 46
config **.targetBler 0.01
config **.blerShift 5
config **.fbPeriod 40
config **.configurator.assignAddresses true
config **.configurator.addDefaultRoutes true
config **.configurator.addStaticRoutes true

par singleMecHost.iUpf.pppg$o[0].channel typename "\"inet.node.ethernet.Eth10G\""
par singleMecHost.iUpf.pppg$o[0].channel disabled false
attr mutable ""
par singleMecHost.iUpf.pppg$o[0].channel delay 5e-08s
attr mutable ""
attr unit s
par singleMecHost.iUpf.pppg$o[0].channel datarate 1e+10bps
attr mutable ""
attr unit bps
par singleMecHost.iUpf.pppg$o[0].channel ber 0
attr mutable ""
par singleMecHost.iUpf.pppg$o[0].channel per 0
attr mutable ""
par singleMecHost.iUpf.pppg$o[0].channel length 10m
attr unit m
par singleMecHost.gnb1.ppp$o.channel typename "\"inet.node.ethernet.Eth10G\""
par singleMecHost.gnb1.ppp$o.channel disabled false
attr mutable ""
par singleMecHost.gnb1.ppp$o.channel delay 5e-08s
attr mutable ""
attr unit s
par singleMecHost.gnb1.ppp$o.channel datarate 1e+10bps
attr mutable ""
attr unit bps
par singleMecHost.gnb1.ppp$o.channel ber 0
attr mutable ""
par singleMecHost.gnb1.ppp$o.channel per 0
attr mutable ""
par singleMecHost.gnb1.ppp$o.channel length 10m
attr unit m
par singleMecHost.iUpf.pppg$o[1].channel typename "\"inet.node.ethernet.Eth10G\""
par singleMecHost.iUpf.pppg$o[1].channel disabled false
attr mutable ""
par singleMecHost.iUpf.pppg$o[1].channel delay 5e-08s
attr mutable ""
attr unit s
par singleMecHost.iUpf.pppg$o[1].channel datarate 1e+10bps
attr mutable ""
attr unit bps
par singleMecHost.iUpf.pppg$o[1].channel ber 0
attr mutable ""
par singleMecHost.iUpf.pppg$o[1].channel per 0
attr mutable ""
par singleMecHost.iUpf.pppg$o[1].channel length 10m
attr unit m
par singleMecHost.router1.pppg$o[0].channel typename "\"inet.node.ethernet.Eth10G\""
par singleMecHost.router1.pppg$o[0].channel disabled false
attr mutable ""
par singleMecHost.router1.pppg$o[0].channel delay 5e-08s
attr mutable ""
attr unit s
par singleMecHost.router1.pppg$o[0].channel datarate 1e+10bps
attr mutable ""
attr unit bps
par singleMecHost.router1.pppg$o[0].channel ber 0
attr mutable ""
par singleMecHost.router1.pppg$o[0].channel per 0
attr mutable ""
par singleMecHost.router1.pppg$o[0].channel length 10m
attr unit m
par singleMecHost.router1.pppg$o[1].channel typename "\"inet.node.ethernet.Eth10G\""
par singleMecHost.router1.pppg$o[1].channel disabled false
attr mutable ""
par singleMecHost.router1.pppg$o[1].channel delay 5e-08s
attr mutable ""
attr unit s
par singleMecHost.router1.pppg$o[1].channel datarate 1e+10bps
attr mutable ""
attr unit bps
par singleMecHost.router1.pppg$o[1].channel ber 0
attr mutable ""
par singleMecHost.router1.pppg$o[1].channel per 0
attr mutable ""
par singleMecHost.router1.pppg$o[1].channel length 10m
attr unit m
par singleMecHost.router2.pppg$o[0].channel typename "\"inet.node.ethernet.Eth10G\""
par singleMecHost.router2.pppg$o[0].channel disabled false
attr mutable ""
par singleMecHost.router2.pppg$o[0].channel delay 5e-08s
attr mutable ""
attr unit s
par singleMecHost.router2.pppg$o[0].channel datarate 1e+10bps
attr mutable ""
attr unit bps
par singleMecHost.router2.pppg$o[0].channel ber 0
attr mutable ""
par singleMecHost.router2.pppg$o[0].channel per 0
attr mutable ""
par singleMecHost.router2.pppg$o[0].channel length 10m
attr unit m
par singleMecHost.router1.pppg$o[2].channel typename "\"inet.node.ethernet.Eth10G\""
par singleMecHost.router1.pppg$o[2].channel disabled false
attr mutable ""
par singleMecHost.router1.pppg$o[2].channel delay 5e-08s
attr mutable ""
attr unit s
par singleMecHost.router1.pppg$o[2].channel datarate 1e+10bps
attr mutable ""
attr unit bps
par singleMecHost.router1.pppg$o[2].channel ber 0
attr mutable ""
par singleMecHost.router1.pppg$o[2].channel per 0
attr mutable ""
par singleMecHost.router1.pppg$o[2].channel length 10m
attr unit m
par singleMecHost.router3.pppg$o[0].channel typename "\"inet.node.ethernet.Eth10G\""
par singleMecHost.router3.pppg$o[0].channel disabled false
attr mutable ""
par singleMecHost.router3.pppg$o[0].channel delay 5e-08s
attr mutable ""
attr unit s
par singleMecHost.router3.pppg$o[0].channel datarate 1e+10bps
attr mutable ""
attr unit bps
par singleMecHost.router3.pppg$o[0].channel ber 0
attr mutable ""
par singleMecHost.router3.pppg$o[0].channel per 0
attr mutable ""
par singleMecHost.router3.pppg$o[0].channel length 10m
attr unit m
par singleMecHost.router2.pppg$o[1].channel typename "\"inet.node.ethernet.Eth10G\""
par singleMecHost.router2.pppg$o[1].channel disabled false
attr mutable ""
par singleMecHost.router2.pppg$o[1].channel delay 5e-08s
attr mutable ""
attr unit s
par singleMecHost.router2.pppg$o[1].channel datarate 1e+10bps
attr mutable ""
attr unit bps
par singleMecHost.router2.pppg$o[1].channel ber 0
attr mutable ""
par singleMecHost.router2.pppg$o[1].channel per 0
attr mutable ""
par singleMecHost.router2.pppg$o[1].channel length 10m
attr unit m
par singleMecHost.router3.pppg$o[1].channel typename "\"inet.node.ethernet.Eth10G\""
par singleMecHost.router3.pppg$o[1].channel disabled false
attr mutable ""
par singleMecHost.router3.pppg$o[1].channel delay 5e-08s
attr mutable ""
attr unit s
par singleMecHost.router3.pppg$o[1].channel datarate 1e+10bps
attr mutable ""
attr unit bps
par singleMecHost.router3.pppg$o[1].channel ber 0
attr mutable ""
par singleMecHost.router3.pppg$o[1].channel per 0
attr mutable ""
par singleMecHost.router3.pppg$o[1].channel length 10m
attr unit m
par singleMecHost.router2.pppg$o[2].channel typename "\"inet.node.ethernet.Eth10G\""
par singleMecHost.router2.pppg$o[2].channel disabled false
attr mutable ""
par singleMecHost.router2.pppg$o[2].channel delay 5e-08s
attr mutable ""
attr unit s
par singleMecHost.router2.pppg$o[2].channel datarate 1e+10bps
attr mutable ""
attr unit bps
par singleMecHost.router2.pppg$o[2].channel ber 0
attr mutable ""
par singleMecHost.router2.pppg$o[2].channel per 0
attr mutable ""
par singleMecHost.router2.pppg$o[2].channel length 10m
attr unit m
par singleMecHost.router4.pppg$o[0].channel typename "\"inet.node.ethernet.Eth10G\""
par singleMecHost.router4.pppg$o[0].channel disabled false
attr mutable ""
par singleMecHost.router4.pppg$o[0].channel delay 5e-08s
attr mutable ""
attr unit s
par singleMecHost.router4.pppg$o[0].channel datarate 1e+10bps
attr mutable ""
attr unit bps
par singleMecHost.router4.pppg$o[0].channel ber 0
attr mutable ""
par singleMecHost.router4.pppg$o[0].channel per 0
attr mutable ""
par singleMecHost.router4.pppg$o[0].channel length 10m
attr unit m
par singleMecHost.router3.pppg$o[2].channel typename "\"inet.node.ethernet.Eth10G\""
par singleMecHost.router3.pppg$o[2].channel disabled false
attr mutable ""
par singleMecHost.router3.pppg$o[2].channel delay 5e-08s
attr mutable ""
attr unit s
par singleMecHost.router3.pppg$o[2].channel datarate 1e+10bps
attr mutable ""
attr unit bps
par singleMecHost.router3.pppg$o[2].channel ber 0
attr mutable ""
par singleMecHost.router3.pppg$o[2].channel per 0
attr mutable ""
par singleMecHost.router3.pppg$o[2].channel length 10m
attr unit m
par singleMecHost.router5.pppg$o[0].channel typename "\"inet.node.ethernet.Eth10G\""
par singleMecHost.router5.pppg$o[0].channel disabled false
attr mutable ""
par singleMecHost.router5.pppg$o[0].channel delay 5e-08s
attr mutable ""
attr unit s
par singleMecHost.router5.pppg$o[0].channel datarate 1e+10bps
attr mutable ""
attr unit bps
par singleMecHost.router5.pppg$o[0].channel ber 0
attr mutable ""
par singleMecHost.router5.pppg$o[0].channel per 0
attr mutable ""
par singleMecHost.router5.pppg$o[0].channel length 10m
attr unit m
par singleMecHost.router4.pppg$o[1].channel typename "\"inet.node.ethernet.Eth10G\""
par singleMecHost.router4.pppg$o[1].channel disabled false
attr mutable ""
par singleMecHost.router4.pppg$o[1].channel delay 5e-08s
attr mutable ""
attr unit s
par singleMecHost.router4.pppg$o[1].channel datarate 1e+10bps
attr mutable ""
attr unit bps
par singleMecHost.router4.pppg$o[1].channel ber 0
attr mutable ""
par singleMecHost.router4.pppg$o[1].channel per 0
attr mutable ""
par singleMecHost.router4.pppg$o[1].channel length 10m
attr unit m
par singleMecHost.router5.pppg$o[1].channel typename "\"inet.node.ethernet.Eth10G\""
par singleMecHost.router5.pppg$o[1].channel disabled false
attr mutable ""
par singleMecHost.router5.pppg$o[1].channel delay 5e-08s
attr mutable ""
attr unit s
par singleMecHost.router5.pppg$o[1].channel datarate 1e+10bps
attr mutable ""
attr unit bps
par singleMecHost.router5.pppg$o[1].channel ber 0
attr mutable ""
par singleMecHost.router5.pppg$o[1].channel per 0
attr mutable ""
par singleMecHost.router5.pppg$o[1].channel length 10m
attr unit m
par singleMecHost.router4.pppg$o[2].channel typename "\"inet.node.ethernet.Eth10G\""
par singleMecHost.router4.pppg$o[2].channel disabled false
attr mutable ""
par singleMecHost.router4.pppg$o[2].channel delay 5e-08s
attr mutable ""
attr unit s
par singleMecHost.router4.pppg$o[2].channel datarate 1e+10bps
attr mutable ""
attr unit bps
par singleMecHost.router4.pppg$o[2].channel ber 0
attr mutable ""
par singleMecHost.router4.pppg$o[2].channel per 0
attr mutable ""
par singleMecHost.router4.pppg$o[2].channel length 10m
attr unit m
par singleMecHost.router6.pppg$o[0].channel typename "\"inet.node.ethernet.Eth10G\""
par singleMecHost.router6.pppg$o[0].channel disabled false
attr mutable ""
par singleMecHost.router6.pppg$o[0].channel delay 5e-08s
attr mutable ""
attr unit s
par singleMecHost.router6.pppg$o[0].channel datarate 1e+10bps
attr mutable ""
attr unit bps
par singleMecHost.router6.pppg$o[0].channel ber 0
attr mutable ""
par singleMecHost.router6.pppg$o[0].channel per 0
attr mutable ""
par singleMecHost.router6.pppg$o[0].channel length 10m
attr unit m
par singleMecHost.router4.pppg$o[3].channel typename "\"inet.node.ethernet.Eth10G\""
par singleMecHost.router4.pppg$o[3].channel disabled false
attr mutable ""
par singleMecHost.router4.pppg$o[3].channel delay 5e-08s
attr mutable ""
attr unit s
par singleMecHost.router4.pppg$o[3].channel datarate 1e+10bps
attr mutable ""
attr unit bps
par singleMecHost.router4.pppg$o[3].channel ber 0
attr mutable ""
par singleMecHost.router4.pppg$o[3].channel per 0
attr mutable ""
par singleMecHost.router4.pppg$o[3].channel length 10m
attr unit m
par singleMecHost.router7.pppg$o[0].channel typename "\"inet.node.ethernet.Eth10G\""
par singleMecHost.router7.pppg$o[0].channel disabled false
attr mutable ""
par singleMecHost.router7.pppg$o[0].channel delay 5e-08s
attr mutable ""
attr unit s
par singleMecHost.router7.pppg$o[0].channel datarate 1e+10bps
attr mutable ""
attr unit bps
par singleMecHost.router7.pppg$o[0].channel ber 0
attr mutable ""
par singleMecHost.router7.pppg$o[0].channel per 0
attr mutable ""
par singleMecHost.router7.pppg$o[0].channel length 10m
attr unit m
par singleMecHost.router5.pppg$o[2].channel typename "\"inet.node.ethernet.Eth10G\""
par singleMecHost.router5.pppg$o[2].channel disabled false
attr mutable ""
par singleMecHost.router5.pppg$o[2].channel delay 5e-08s
attr mutable ""
attr unit s
par singleMecHost.router5.pppg$o[2].channel datarate 1e+10bps
attr mutable ""
attr unit bps
par singleMecHost.router5.pppg$o[2].channel ber 0
attr mutable ""
par singleMecHost.router5.pppg$o[2].channel per 0
attr mutable ""
par singleMecHost.router5.pppg$o[2].channel length 10m
attr unit m
par singleMecHost.router6.pppg$o[1].channel typename "\"inet.node.ethernet.Eth10G\""
par singleMecHost.router6.pppg$o[1].channel disabled false
attr mutable ""
par singleMecHost.router6.pppg$o[1].channel delay 5e-08s
attr mutable ""
attr unit s
par singleMecHost.router6.pppg$o[1].channel datarate 1e+10bps
attr mutable ""
attr unit bps
par singleMecHost.router6.pppg$o[1].channel ber 0
attr mutable ""
par singleMecHost.router6.pppg$o[1].channel per 0
attr mutable ""
par singleMecHost.router6.pppg$o[1].channel length 10m
attr unit m
par singleMecHost.router5.pppg$o[3].channel typename "\"inet.node.ethernet.Eth10G\""
par singleMecHost.router5.pppg$o[3].channel disabled false
attr mutable ""
par singleMecHost.router5.pppg$o[3].channel delay 5e-08s
attr mutable ""
attr unit s
par singleMecHost.router5.pppg$o[3].channel datarate 1e+10bps
attr mutable ""
attr unit bps
par singleMecHost.router5.pppg$o[3].channel ber 0
attr mutable ""
par singleMecHost.router5.pppg$o[3].channel per 0
attr mutable ""
par singleMecHost.router5.pppg$o[3].channel length 10m
attr unit m
par singleMecHost.router7.pppg$o[1].channel typename "\"inet.node.ethernet.Eth10G\""
par singleMecHost.router7.pppg$o[1].channel disabled false
attr mutable ""
par singleMecHost.router7.pppg$o[1].channel delay 5e-08s
attr mutable ""
attr unit s
par singleMecHost.router7.pppg$o[1].channel datarate 1e+10bps
attr mutable ""
attr unit bps
par singleMecHost.router7.pppg$o[1].channel ber 0
attr mutable ""
par singleMecHost.router7.pppg$o[1].channel per 0
attr mutable ""
par singleMecHost.router7.pppg$o[1].channel length 10m
attr unit m
par singleMecHost.router6.pppg$o[2].channel typename "\"inet.node.ethernet.Eth10G\""
par singleMecHost.router6.pppg$o[2].channel disabled false
attr mutable ""
par singleMecHost.router6.pppg$o[2].channel delay 5e-08s
attr mutable ""
attr unit s
par singleMecHost.router6.pppg$o[2].channel datarate 1e+10bps
attr mutable ""
attr unit bps
par singleMecHost.router6.pppg$o[2].channel ber 0
attr mutable ""
par singleMecHost.router6.pppg$o[2].channel per 0
attr mutable ""
par singleMecHost.router6.pppg$o[2].channel length 10m
attr unit m
par singleMecHost.router8.pppg$o[0].channel typename "\"inet.node.ethernet.Eth10G\""
par singleMecHost.router8.pppg$o[0].channel disabled false
attr mutable ""
par singleMecHost.router8.pppg$o[0].channel delay 5e-08s
attr mutable ""
attr unit s
par singleMecHost.router8.pppg$o[0].channel datarate 1e+10bps
attr mutable ""
attr unit bps
par singleMecHost.router8.pppg$o[0].channel ber 0
attr mutable ""
par singleMecHost.router8.pppg$o[0].channel per 0
attr mutable ""
par singleMecHost.router8.pppg$o[0].channel length 10m
attr unit m
par singleMecHost.router7.pppg$o[2].channel typename "\"inet.node.ethernet.Eth10G\""
par singleMecHost.router7.pppg$o[2].channel disabled false
attr mutable ""
par singleMecHost.router7.pppg$o[2].channel delay 5e-08s
attr mutable ""
attr unit s
par singleMecHost.router7.pppg$o[2].channel datarate 1e+10bps
attr mutable ""
attr unit bps
par singleMecHost.router7.pppg$o[2].channel ber 0
attr mutable ""
par singleMecHost.router7.pppg$o[2].channel per 0
attr mutable ""
par singleMecHost.router7.pppg$o[2].channel length 10m
attr unit m
par singleMecHost.router8.pppg$o[1].channel typename "\"inet.node.ethernet.Eth10G\""
par singleMecHost.router8.pppg$o[1].channel disabled false
attr mutable ""
par singleMecHost.router8.pppg$o[1].channel delay 5e-08s
attr mutable ""
attr unit s
par singleMecHost.router8.pppg$o[1].channel datarate 1e+10bps
attr mutable ""
attr unit bps
par singleMecHost.router8.pppg$o[1].channel ber 0
attr mutable ""
par singleMecHost.router8.pppg$o[1].channel per 0
attr mutable ""
par singleMecHost.router8.pppg$o[1].channel length 10m
attr unit m
par singleMecHost.upf.pppg$o[0].channel typename "\"inet.node.ethernet.Eth10G\""
par singleMecHost.upf.pppg$o[0].channel disabled false
attr mutable ""
par singleMecHost.upf.pppg$o[0].channel delay 5e-08s
attr mutable ""
attr unit s
par singleMecHost.upf.pppg$o[0].channel datarate 1e+10bps
attr mutable ""
attr unit bps
par singleMecHost.upf.pppg$o[0].channel ber 0
attr mutable ""
par singleMecHost.upf.pppg$o[0].channel per 0
attr mutable ""
par singleMecHost.upf.pppg$o[0].channel length 10m
attr unit m
par singleMecHost.router8.pppg$o[2].channel typename "\"inet.node.ethernet.Eth10G\""
par singleMecHost.router8.pppg$o[2].channel disabled false
attr mutable ""
par singleMecHost.router8.pppg$o[2].channel delay 5e-08s
attr mutable ""
attr unit s
par singleMecHost.router8.pppg$o[2].channel datarate 1e+10bps
attr mutable ""
attr unit bps
par singleMecHost.router8.pppg$o[2].channel ber 0
attr mutable ""
par singleMecHost.router8.pppg$o[2].channel per 0
attr mutable ""
par singleMecHost.router8.pppg$o[2].channel length 10m
attr unit m
par singleMecHost.ualcmp.ppp$o[0].channel typename "\"inet.node.ethernet.Eth10G\""
par singleMecHost.ualcmp.ppp$o[0].channel disabled false
attr mutable ""
par singleMecHost.ualcmp.ppp$o[0].channel delay 5e-08s
attr mutable ""
attr unit s
par singleMecHost.ualcmp.ppp$o[0].channel datarate 1e+10bps
attr mutable ""
attr unit bps
par singleMecHost.ualcmp.ppp$o[0].channel ber 0
attr mutable ""
par singleMecHost.ualcmp.ppp$o[0].channel per 0
attr mutable ""
par singleMecHost.ualcmp.ppp$o[0].channel length 10m
attr unit m
par singleMecHost.upf.filterGate$o.channel typename "\"inet.node.ethernet.Eth10G\""
par singleMecHost.upf.filterGate$o.channel disabled false
attr mutable ""
par singleMecHost.upf.filterGate$o.channel delay 5e-08s
attr mutable ""
attr unit s
par singleMecHost.upf.filterGate$o.channel datarate 1e+10bps
attr mutable ""
attr unit bps
par singleMecHost.upf.filterGate$o.channel ber 0
attr mutable ""
par singleMecHost.upf.filterGate$o.channel per 0
attr mutable ""
par singleMecHost.upf.filterGate$o.channel length 10m
attr unit m
par singleMecHost.mecHost1.ppp$o[0].channel typename "\"inet.node.ethernet.Eth10G\""
par singleMecHost.mecHost1.ppp$o[0].channel disabled false
attr mutable ""
par singleMecHost.mecHost1.ppp$o[0].channel delay 5e-08s
attr mutable ""
attr unit s
par singleMecHost.mecHost1.ppp$o[0].channel datarate 1e+10bps
attr mutable ""
attr unit bps
par singleMecHost.mecHost1.ppp$o[0].channel ber 0
attr mutable ""
par singleMecHost.mecHost1.ppp$o[0].channel per 0
attr mutable ""
par singleMecHost.mecHost1.ppp$o[0].channel length 10m
attr unit m
par singleMecHost.iUpf.pppg$o[2].channel typename "\"inet.node.ethernet.Eth10G\""
par singleMecHost.iUpf.pppg$o[2].channel disabled false
attr mutable ""
par singleMecHost.iUpf.pppg$o[2].channel delay 5e-08s
attr mutable ""
attr unit s
par singleMecHost.iUpf.pppg$o[2].channel datarate 1e+10bps
attr mutable ""
attr unit bps
par singleMecHost.iUpf.pppg$o[2].channel ber 0
attr mutable ""
par singleMecHost.iUpf.pppg$o[2].channel per 0
attr mutable ""
par singleMecHost.iUpf.pppg$o[2].channel length 10m
attr unit m
par singleMecHost.mecHost2.ppp$o[0].channel typename "\"inet.node.ethernet.Eth10G\""
par singleMecHost.mecHost2.ppp$o[0].channel disabled false
attr mutable ""
par singleMecHost.mecHost2.ppp$o[0].channel delay 5e-08s
attr mutable ""
attr unit s
par singleMecHost.mecHost2.ppp$o[0].channel datarate 1e+10bps
attr mutable ""
attr unit bps
par singleMecHost.mecHost2.ppp$o[0].channel ber 0
attr mutable ""
par singleMecHost.mecHost2.ppp$o[0].channel per 0
attr mutable ""
par singleMecHost.mecHost2.ppp$o[0].channel length 10m
attr unit m
par singleMecHost.iUpf.pppg$o[3].channel typename "\"inet.node.ethernet.Eth10G\""
par singleMecHost.iUpf.pppg$o[3].channel disabled false
attr mutable ""
par singleMecHost.iUpf.pppg$o[3].channel delay 5e-08s
attr mutable ""
attr unit s
par singleMecHost.iUpf.pppg$o[3].channel datarate 1e+10bps
attr mutable ""
attr unit bps
par singleMecHost.iUpf.pppg$o[3].channel ber 0
attr mutable ""
par singleMecHost.iUpf.pppg$o[3].channel per 0
attr mutable ""
par singleMecHost.iUpf.pppg$o[3].channel length 10m
attr unit m
par singleMecHost.upf.pppg$o[1].channel typename "\"inet.node.ethernet.Eth10G\""
par singleMecHost.upf.pppg$o[1].channel disabled false
attr mutable ""
par singleMecHost.upf.pppg$o[1].channel delay 5e-08s
attr mutable ""
attr unit s
par singleMecHost.upf.pppg$o[1].channel datarate 1e+10bps
attr mutable ""
attr unit bps
par singleMecHost.upf.pppg$o[1].channel ber 0
attr mutable ""
par singleMecHost.upf.pppg$o[1].channel per 0
attr mutable ""
par singleMecHost.upf.pppg$o[1].channel length 10m
attr unit m
par singleMecHost.coreServer1.ppp$o[0].channel typename "\"inet.node.ethernet.Eth10G\""
par singleMecHost.coreServer1.ppp$o[0].channel disabled false
attr mutable ""
par singleMecHost.coreServer1.ppp$o[0].channel delay 5e-08s
attr mutable ""
attr unit s
par singleMecHost.coreServer1.ppp$o[0].channel datarate 1e+10bps
attr mutable ""
attr unit bps
par singleMecHost.coreServer1.ppp$o[0].channel ber 0
attr mutable ""
par singleMecHost.coreServer1.ppp$o[0].channel per 0
attr mutable ""
par singleMecHost.coreServer1.ppp$o[0].channel length 10m
attr unit m
par singleMecHost.upf.pppg$o[2].channel typename "\"inet.node.ethernet.Eth10G\""
par singleMecHost.upf.pppg$o[2].channel disabled false
attr mutable ""
par singleMecHost.upf.pppg$o[2].channel delay 5e-08s
attr mutable ""
attr unit s
par singleMecHost.upf.pppg$o[2].channel datarate 1e+10bps
attr mutable ""
attr unit bps
par singleMecHost.upf.pppg$o[2].channel ber 0
attr mutable ""
par singleMecHost.upf.pppg$o[2].channel per 0
attr mutable ""
par singleMecHost.upf.pppg$o[2].channel length 10m
attr unit m
par singleMecHost.coreServer2.ppp$o[0].channel typename "\"inet.node.ethernet.Eth10G\""
par singleMecHost.coreServer2.ppp$o[0].channel disabled false
attr mutable ""
par singleMecHost.coreServer2.ppp$o[0].channel delay 5e-08s
attr mutable ""
attr unit s
par singleMecHost.coreServer2.ppp$o[0].channel datarate 1e+10bps
attr mutable ""
attr unit bps
par singleMecHost.coreServer2.ppp$o[0].channel ber 0
attr mutable ""
par singleMecHost.coreServer2.ppp$o[0].channel per 0
attr mutable ""
par singleMecHost.coreServer2.ppp$o[0].channel length 10m
attr unit m
par singleMecHost.upf.pppg$o[3].channel typename "\"inet.node.ethernet.Eth10G\""
par singleMecHost.upf.pppg$o[3].channel disabled false
attr mutable ""
par singleMecHost.upf.pppg$o[3].channel delay 5e-08s
attr mutable ""
attr unit s
par singleMecHost.upf.pppg$o[3].channel datarate 1e+10bps
attr mutable ""
attr unit bps
par singleMecHost.upf.pppg$o[3].channel ber 0
attr mutable ""
par singleMecHost.upf.pppg$o[3].channel per 0
attr mutable ""
par singleMecHost.upf.pppg$o[3].channel length 10m
attr unit m
par singleMecHost.coreServer3.ppp$o[0].channel typename "\"inet.node.ethernet.Eth10G\""
par singleMecHost.coreServer3.ppp$o[0].channel disabled false
attr mutable ""
par singleMecHost.coreServer3.ppp$o[0].channel delay 5e-08s
attr mutable ""
attr unit s
par singleMecHost.coreServer3.ppp$o[0].channel datarate 1e+10bps
attr mutable ""
attr unit bps
par singleMecHost.coreServer3.ppp$o[0].channel ber 0
attr mutable ""
par singleMecHost.coreServer3.ppp$o[0].channel per 0
attr mutable ""
par singleMecHost.coreServer3.ppp$o[0].channel length 10m
attr unit m
par singleMecHost.upf.pppg$o[4].channel typename "\"inet.node.ethernet.Eth10G\""
par singleMecHost.upf.pppg$o[4].channel disabled false
attr mutable ""
par singleMecHost.upf.pppg$o[4].channel delay 5e-08s
attr mutable ""
attr unit s
par singleMecHost.upf.pppg$o[4].channel datarate 1e+10bps
attr mutable ""
attr unit bps
par singleMecHost.upf.pppg$o[4].channel ber 0
attr mutable ""
par singleMecHost.upf.pppg$o[4].channel per 0
attr mutable ""
par singleMecHost.upf.pppg$o[4].channel length 10m
attr unit m
par singleMecHost.coreServer4.ppp$o[0].channel typename "\"inet.node.ethernet.Eth10G\""
par singleMecHost.coreServer4.ppp$o[0].channel disabled false
attr mutable ""
par singleMecHost.coreServer4.ppp$o[0].channel delay 5e-08s
attr mutable ""
attr unit s
par singleMecHost.coreServer4.ppp$o[0].channel datarate 1e+10bps
attr mutable ""
attr unit bps
par singleMecHost.coreServer4.ppp$o[0].channel ber 0
attr mutable ""
par singleMecHost.coreServer4.ppp$o[0].channel per 0
attr mutable ""
par singleMecHost.coreServer4.ppp$o[0].channel length 10m
attr unit m
par singleMecHost.routingRecorder typename "\"inet.networklayer.ipv4.RoutingTableRecorder\""
par singleMecHost.routingRecorder enabled false
par singleMecHost.configurator typename "\"inet.networklayer.configurator.ipv4.Ipv4NetworkConfigurator\""
par singleMecHost.configurator minLinkWeight 0.001
par singleMecHost.configurator configureIsolatedNetworksSeparatly false
par singleMecHost.configurator config "<config>...</config> at content:1"
par singleMecHost.configurator assignAddresses true
par singleMecHost.configurator assignUniqueAddresses true
par singleMecHost.configurator assignDisjunctSubnetAddresses true
par singleMecHost.configurator addStaticRoutes true
par singleMecHost.configurator addDefaultRoutes true
par singleMecHost.configurator addSubnetRoutes true
par singleMecHost.configurator addDirectRoutes true
par singleMecHost.configurator optimizeRoutes true
par singleMecHost.configurator dumpTopology false
par singleMecHost.configurator dumpLinks false
par singleMecHost.configurator dumpAddresses false
par singleMecHost.configurator dumpRoutes false
par singleMecHost.configurator dumpConfig "\"\""
par singleMecHost.channelControl typename "\"simu5g.world.radio.LteChannelControl\""
par singleMecHost.channelControl coreDebug false
par singleMecHost.channelControl pMax 20mW
attr unit mW
par singleMecHost.channelControl sat -110dBm
attr unit dBm
par singleMecHost.channelControl alpha 2
par singleMecHost.channelControl carrierFrequency 2.4e+09Hz
attr unit Hz
par singleMecHost.channelControl numChannels 1
par singleMecHost.channelControl propagationModel "\"FreeSpaceModel\""
attr enum FreeSpaceModel,TwoRayGroundModel,RiceModel,RayleighModel,NakagamiModel,LogNormalShadowingModel
par singleMecHost.binder typename "\"simu5g.common.binder.Binder\""
par singleMecHost.binder blerShift 5
par singleMecHost.binder maxDataRatePerRb 1.16Mbps
attr unit Mbps
par singleMecHost.binder printTrafficGeneratorConfig false
par singleMecHost.carrierAggregation.componentCarrier[0] typename "\"simu5g.common.carrierAggregation.ComponentCarrier\""
par singleMecHost.carrierAggregation.componentCarrier[0] carrierFrequency 2GHz
attr unit GHz
par singleMecHost.carrierAggregation.componentCarrier[0] numBands 50
par singleMecHost.carrierAggregation.componentCarrier[0] numerologyIndex 0
par singleMecHost.carrierAggregation.componentCarrier[0] useTdd false
par singleMecHost.carrierAggregation.componentCarrier[0] tddNumSymbolsDl 7
par singleMecHost.carrierAggregation.componentCarrier[0] tddNumSymbolsUl 7
par singleMecHost.carrierAggregation typename "\"simu5g.common.carrierAggregation.CarrierAggregation\""
par singleMecHost.carrierAggregation numComponentCarriers 1
par singleMecHost.upf.pppg$i[0].channel typename "\"ned.IdealChannel\""
par singleMecHost.upf.ppp[0].phys$o.channel typename "\"ned.IdealChannel\""
par singleMecHost.upf.pppg$i[1].channel typename "\"ned.IdealChannel\""
par singleMecHost.upf.ppp[1].phys$o.channel typename "\"ned.IdealChannel\""
par singleMecHost.upf.pppg$i[2].channel typename "\"ned.IdealChannel\""
par singleMecHost.upf.ppp[2].phys$o.channel typename "\"ned.IdealChannel\""
par singleMecHost.upf.pppg$i[3].channel typename "\"ned.IdealChannel\""
par singleMecHost.upf.ppp[3].phys$o.channel typename "\"ned.IdealChannel\""
par singleMecHost.upf.pppg$i[4].channel typename "\"ned.IdealChannel\""
par singleMecHost.upf.ppp[4].phys$o.channel typename "\"ned.IdealChannel\""
par singleMecHost.upf.interfaceTable typename "\"inet.networklayer.common.InterfaceTable\""
par singleMecHost.upf.interfaceTable displayAddresses false
par singleMecHost.upf.cb typename "\"inet.common.MessageDispatcher\""
par singleMecHost.upf.cb displayStringTextFormat "\"processed %p pk (%l)\""
par singleMecHost.upf.cb forwardServiceRegistration true
par singleMecHost.upf.cb forwardProtocolRegistration true
par singleMecHost.upf.bl typename "\"inet.common.MessageDispatcher\""
par singleMecHost.upf.bl displayStringTextFormat "\"processed %p pk (%l)\""
par singleMecHost.upf.bl forwardServiceRegistration true
par singleMecHost.upf.bl forwardProtocolRegistration true
par singleMecHost.upf.li typename "\"inet.common.MessageDispatcher\""
par singleMecHost.upf.li displayStringTextFormat "\"processed %p pk (%l)\""
par singleMecHost.upf.li forwardServiceRegistration true
par singleMecHost.upf.li forwardProtocolRegistration true
par singleMecHost.upf.lo[0].upperLayerIn.channel typename "\"ned.IdealChannel\""
par singleMecHost.upf.lo[0].lo.upperLayerOut.channel typename "\"ned.IdealChannel\""
par singleMecHost.upf.lo[0].lo typename "\"inet.linklayer.loopback.Loopback\""
par singleMecHost.upf.lo[0].lo interfaceTableModule "\"singleMecHost.upf.interfaceTable\""
par singleMecHost.upf.lo[0].lo mtu 4470B
attr unit B
scalar singleMecHost.upf.lo[0].lo rcvdPkFromHl:count 0
attr interpolationmode none
attr recordingmode count
attr source packetReceivedFromUpper
attr title "packets received from higher layer, count"
scalar singleMecHost.upf.lo[0].lo rcvdPkFromHl:sum(packetBytes) 0
attr interpolationmode none
attr recordingmode sum(packetBytes)
attr source packetReceivedFromUpper
attr title "packets received from higher layer, sum(packetBytes)"
scalar singleMecHost.upf.lo[0].lo passedUpPk:count 0
attr interpolationmode none
attr recordingmode count
attr source packetSentToUpper
attr title "packets passed to higher layer, count"
scalar singleMecHost.upf.lo[0].lo passedUpPk:sum(packetBytes) 0
attr interpolationmode none
attr recordingmode sum(packetBytes)
attr source packetSentToUpper
attr title "packets passed to higher layer, sum(packetBytes)"
par singleMecHost.upf.lo[0] typename "\"inet.linklayer.loopback.LoopbackInterface\""
par singleMecHost.upf.lo[0] displayStringTextFormat "\"%a (%i)\\n%m\""
par singleMecHost.upf.lo[0] recordPcap false
par singleMecHost.upf.lo[0] numPcapRecorders 0
par singleMecHost.upf.lo[0] interfaceTableModule "\"singleMecHost.upf.interfaceTable\""
scalar singleMecHost.upf.lo[0] packetDropInterfaceDown:count 0
attr interpolationmode none
attr recordingmode count
attr source packetDropReasonIsInterfaceDown(packetDropped)
attr title "packet drops: interface down, count"
scalar singleMecHost.upf.lo[0] packetDropInterfaceDown:sum(packetBytes) 0
attr interpolationmode none
attr recordingmode sum(packetBytes)
attr source packetDropReasonIsInterfaceDown(packetDropped)
attr title "packet drops: interface down, sum(packetBytes)"
scalar singleMecHost.upf.lo[0] packetDropNoCarrier:count 0
attr interpolationmode none
attr recordingmode count
attr source packetDropReasonIsNoCarrier(packetDropped)
attr title "packet drops: no carrier, count"
scalar singleMecHost.upf.lo[0] packetDropNoCarrier:sum(packetBytes) 0
attr interpolationmode none
attr recordingmode sum(packetBytes)
attr source packetDropReasonIsNoCarrier(packetDropped)
attr title "packet drops: no carrier, sum(packetBytes)"
par singleMecHost.upf.ppp[0].phys$i.channel typename "\"ned.IdealChannel\""
par singleMecHost.upf.ppp[0].ppp.phys$o.channel typename "\"ned.IdealChannel\""
par singleMecHost.upf.ppp[0].ppp.upperLayerOut.channel typename "\"ned.IdealChannel\""
par singleMecHost.upf.ppp[0].upperLayerIn.channel typename "\"ned.IdealChannel\""
par singleMecHost.upf.ppp[0].queue typename "\"inet.queueing.queue.DropTailQueue\""
par singleMecHost.upf.ppp[0].queue displayStringTextFormat "\"contains %p pk (%l) pushed %u\\npulled %o removed %r dropped %d\""
par singleMecHost.upf.ppp[0].queue packetCapacity 10000
par singleMecHost.upf.ppp[0].queue dataCapacity -1b
attr unit b
par singleMecHost.upf.ppp[0].queue dropperClass "\"inet::queueing::PacketAtCollectionEndDropper\""
par singleMecHost.upf.ppp[0].queue comparatorClass "\"\""
par singleMecHost.upf.ppp[0].queue bufferModule "\"\""
scalar singleMecHost.upf.ppp[0].queue queueLength:last 0
attr autoWarmupFilter false
attr interpolationmode sample-hold
attr recordingmode last
attr source "warmup(atomic(constant0(packetPushEnded) + count(packetPushStarted) - count(packetPulled) - count(packetRemoved) - count(packetDropped)))"
attr title "queue length, last"
attr unit pk
scalar singleMecHost.upf.ppp[0].queue queueLength:max 0
attr autoWarmupFilter false
attr interpolationmode sample-hold
attr recordingmode max
attr source "warmup(atomic(constant0(packetPushEnded) + count(packetPushStarted) - count(packetPulled) - count(packetRemoved) - count(packetDropped)))"
attr title "queue length, max"
attr unit pk
scalar singleMecHost.upf.ppp[0].queue queueLength:timeavg 0
attr autoWarmupFilter false
attr interpolationmode sample-hold
attr recordingmode timeavg
attr source "warmup(atomic(constant0(packetPushEnded) + count(packetPushStarted) - count(packetPulled) - count(packetRemoved) - count(packetDropped)))"
attr title "queue length, timeavg"
attr unit pk
scalar singleMecHost.upf.ppp[0].queue queueBitLength:last 0
attr autoWarmupFilter false
attr interpolationmode sample-hold
attr recordingmode last
attr source "warmup(atomic(constant0(packetPushEnded) + sum(packetLength(packetPushStarted)) - sum(packetLength(packetPulled)) - sum(packetLength(packetRemoved)) - sum(packetLength(packetDropped))))"
attr title "queue bit length, last"
attr unit b
scalar singleMecHost.upf.ppp[0].queue queueBitLength:max 0
attr autoWarmupFilter false
attr interpolationmode sample-hold
attr recordingmode max
attr source "warmup(atomic(constant0(packetPushEnded) + sum(packetLength(packetPushStarted)) - sum(packetLength(packetPulled)) - sum(packetLength(packetRemoved)) - sum(packetLength(packetDropped))))"
attr title "queue bit length, max"
attr unit b
scalar singleMecHost.upf.ppp[0].queue queueBitLength:timeavg 0
attr autoWarmupFilter false
attr interpolationmode sample-hold
attr recordingmode timeavg
attr source "warmup(atomic(constant0(packetPushEnded) + sum(packetLength(packetPushStarted)) - sum(packetLength(packetPulled)) - sum(packetLength(packetRemoved)) - sum(packetLength(packetDropped))))"
attr title "queue bit length, timeavg"
attr unit b
statistic singleMecHost.upf.ppp[0].queue queueingTime:histogram
field count 42
field mean 0
field stddev 0
field min 0
field max 0
field sum 0
field sqrsum 0
attr interpolationmode none
attr recordingmode histogram
attr source queueingTime(packetPulled)
attr title "queueing times"
attr unit s
bin	-inf	0
bin	-0.5	0
bin	-0.48	0
bin	-0.46	0
bin	-0.44	0
bin	-0.42	0
bin	-0.4	0
bin	-0.38	0
bin	-0.36	0
bin	-0.34	0
bin	-0.32	0
bin	-0.3	0
bin	-0.28	0
bin	-0.26	0
bin	-0.24	0
bin	-0.22	0
bin	-0.2	0
bin	-0.18	0
bin	-0.16	0
bin	-0.14	0
bin	-0.12	0
bin	-0.1	0
bin	-0.08	0
bin	-0.06	0
bin	-0.04	0
bin	-0.02	0
bin	0	42
bin	0.02	0
bin	0.04	0
bin	0.06	0
bin	0.08	0
bin	0.1	0
bin	0.12	0
bin	0.14	0
bin	0.16	0
bin	0.18	0
bin	0.2	0
bin	0.22	0
bin	0.24	0
bin	0.26	0
bin	0.28	0
bin	0.3	0
bin	0.32	0
bin	0.34	0
bin	0.36	0
bin	0.38	0
bin	0.4	0
bin	0.42	0
bin	0.44	0
bin	0.46	0
bin	0.48	0
bin	0.5	0
scalar singleMecHost.upf.ppp[0].queue outgoingPackets:count 42
attr recordingmode count
attr source packetPulled
attr title "outgoing packets, count"
attr unit pk
scalar singleMecHost.upf.ppp[0].queue outgoingPacketLengths:sum 68152
attr interpolationmode none
attr recordingmode sum
attr source packetLength(packetPulled)
attr title "outgoing packet lengths, sum"
attr unit b
statistic singleMecHost.upf.ppp[0].queue outgoingPacketLengths:histogram
field count 42
field mean 1622.6666666667
field stddev 1479.9709072069
field min 528
field max 4088
field sum 68152
field sqrsum 200390848
attr interpolationmode none
attr recordingmode histogram
attr source packetLength(packetPulled)
attr title "outgoing packet lengths"
attr unit b
bin	-inf	0
bin	0	0
bin	100	0
bin	200	0
bin	300	0
bin	400	0
bin	500	7
bin	600	21
bin	700	0
bin	800	0
bin	900	0
bin	1000	0
bin	1100	0
bin	1200	0
bin	1300	0
bin	1400	0
bin	1500	0
bin	1600	0
bin	1700	0
bin	1800	0
bin	1900	0
bin	2000	0
bin	2100	0
bin	2200	0
bin	2300	0
bin	2400	0
bin	2500	0
bin	2600	0
bin	2700	0
bin	2800	0
bin	2900	0
bin	3000	0
bin	3100	0
bin	3200	7
bin	3300	0
bin	3400	0
bin	3500	0
bin	3600	0
bin	3700	0
bin	3800	0
bin	3900	0
bin	4000	7
bin	4100	0
bin	4200	0
bin	4300	0
bin	4400	0
bin	4500	0
bin	4600	0
bin	4700	0
bin	4800	0
bin	4900	0
bin	5000	0
statistic singleMecHost.upf.ppp[0].queue flowQueueingTime:histogram
field count 0
field mean -nan
field stddev nan
field min nan
field max nan
field sum 0
field sqrsum 0
attr interpolationmode none
attr recordingmode histogram
attr source queueingTime(demuxFlow(packetPulled))
attr title "flow queueing times"
attr unit s
bin	-inf	0
bin	0	0
bin	1	0
scalar singleMecHost.upf.ppp[0].queue incomingPackets:count 42
attr recordingmode count
attr source packetPushStarted
attr title "incoming packets, count"
attr unit pk
scalar singleMecHost.upf.ppp[0].queue incomingPacketLengths:sum 68152
attr interpolationmode none
attr recordingmode sum
attr source packetLength(packetPushStarted)
attr title "incoming packet lengths, sum"
attr unit b
statistic singleMecHost.upf.ppp[0].queue incomingPacketLengths:histogram
field count 42
field mean 1622.6666666667
field stddev 1479.9709072069
field min 528
field max 4088
field sum 68152
field sqrsum 200390848
attr interpolationmode none
attr recordingmode histogram
attr source packetLength(packetPushStarted)
attr title "incoming packet lengths"
attr unit b
bin	-inf	0
bin	0	0
bin	100	0
bin	200	0
bin	300	0
bin	400	0
bin	500	7
bin	600	21
bin	700	0
bin	800	0
bin	900	0
bin	1000	0
bin	1100	0
bin	1200	0
bin	1300	0
bin	1400	0
bin	1500	0
bin	1600	0
bin	1700	0
bin	1800	0
bin	1900	0
bin	2000	0
bin	2100	0
bin	2200	0
bin	2300	0
bin	2400	0
bin	2500	0
bin	2600	0
bin	2700	0
bin	2800	0
bin	2900	0
bin	3000	0
bin	3100	0
bin	3200	7
bin	3300	0
bin	3400	0
bin	3500	0
bin	3600	0
bin	3700	0
bin	3800	0
bin	3900	0
bin	4000	7
bin	4100	0
bin	4200	0
bin	4300	0
bin	4400	0
bin	4500	0
bin	4600	0
bin	4700	0
bin	4800	0
bin	4900	0
bin	5000	0
scalar singleMecHost.upf.ppp[0].queue droppedPacketsQueueOverflow:count 0
attr interpolationmode none
attr recordingmode count
attr source packetDropReasonIsQueueOverflow(packetDropped)
attr title "dropped packets: queue overflow, count"
attr unit pk
scalar singleMecHost.upf.ppp[0].queue droppedPacketLengthsQueueOverflow:sum 0
attr interpolationmode none
attr recordingmode sum
attr source packetLength(packetDropReasonIsQueueOverflow(packetDropped))
attr title "dropped packet lengths: queue overflow, sum"
attr unit b
par singleMecHost.upf.ppp[0].ppp typename "\"inet.linklayer.ppp.Ppp\""
par singleMecHost.upf.ppp[0].ppp interfaceTableModule "\"singleMecHost.upf.interfaceTable\""
par singleMecHost.upf.ppp[0].ppp displayStringTextFormat "\"rate: %b\\nsent: %s, rcvd: %r\\nqueue: %q, drop: %d\""
par singleMecHost.upf.ppp[0].ppp sendRawBytes false
par singleMecHost.upf.ppp[0].ppp mtu 4470B
attr unit B
par singleMecHost.upf.ppp[0].ppp stopOperationExtraTime -1s
attr unit s
par singleMecHost.upf.ppp[0].ppp stopOperationTimeout 2s
attr unit s
scalar singleMecHost.upf.ppp[0].ppp transmissionState:timeavg 6.2337754199823e-06
attr interpolationmode sample-hold
attr recordingmode timeavg
attr source transmissionStateChanged
attr title "tx state, timeavg"
scalar singleMecHost.upf.ppp[0].ppp rxPkOk:count 49
attr interpolationmode none
attr recordingmode count
attr source rxPkOk
attr title "packets received OK, count"
scalar singleMecHost.upf.ppp[0].ppp rxPkOk:sum(packetBytes) 7350
attr interpolationmode none
attr recordingmode sum(packetBytes)
attr source rxPkOk
attr title "packets received OK, sum(packetBytes)"
scalar singleMecHost.upf.ppp[0].ppp txPk:count 42
attr interpolationmode none
attr recordingmode count
attr source packetSentToLower
attr title "packets transmitted, count"
scalar singleMecHost.upf.ppp[0].ppp txPk:sum(packetBytes) 8813
attr interpolationmode none
attr recordingmode sum(packetBytes)
attr source packetSentToLower
attr title "packets transmitted, sum(packetBytes)"
scalar singleMecHost.upf.ppp[0].ppp rcvdPkFromHl:count 0
attr interpolationmode none
attr recordingmode count
attr source packetReceivedFromUpper
attr title "packets received from higher layer, count"
scalar singleMecHost.upf.ppp[0].ppp rcvdPkFromHl:sum(packetBytes) 0
attr interpolationmode none
attr recordingmode sum(packetBytes)
attr source packetReceivedFromUpper
attr title "packets received from higher layer, sum(packetBytes)"
scalar singleMecHost.upf.ppp[0].ppp passedUpPk:count 49
attr interpolationmode none
attr recordingmode count
attr source packetSentToUpper
attr title "packets passed to higher layer, count"
scalar singleMecHost.upf.ppp[0].ppp passedUpPk:sum(packetBytes) 7007
attr interpolationmode none
attr recordingmode sum(packetBytes)
attr source packetSentToUpper
attr title "packets passed to higher layer, sum(packetBytes)"
scalar singleMecHost.upf.ppp[0].ppp packetDropIncorrectlyReceived:count 0
attr interpolationmode none
attr recordingmode count
attr source packetDropReasonIsIncorrectlyReceived(packetDropped)
attr title "packet drop: incorrectly received, count"
scalar singleMecHost.upf.ppp[0].ppp packetDropIncorrectlyReceived:sum(packetBytes) 0
attr interpolationmode none
attr recordingmode sum(packetBytes)
attr source packetDropReasonIsIncorrectlyReceived(packetDropped)
attr title "packet drop: incorrectly received, sum(packetBytes)"
scalar singleMecHost.upf.ppp[0].ppp packetDropInterfaceDown:count 0
attr interpolationmode none
attr recordingmode count
attr source packetDropReasonIsInterfaceDown(packetDropped)
attr title "packet drop: interface down, count"
scalar singleMecHost.upf.ppp[0].ppp packetDropInterfaceDown:sum(packetBytes) 0
attr interpolationmode none
attr recordingmode sum(packetBytes)
attr source packetDropReasonIsInterfaceDown(packetDropped)
attr title "packet drop: interface down, sum(packetBytes)"
par singleMecHost.upf.ppp[0] typename "\"inet.linklayer.ppp.PppInterface\""
par singleMecHost.upf.ppp[0] displayStringTextFormat "\"%a (%i)\\n%m\""
par singleMecHost.upf.ppp[0] recordPcap false
par singleMecHost.upf.ppp[0] numPcapRecorders 0
par singleMecHost.upf.ppp[0] interfaceTableModule "\"singleMecHost.upf.interfaceTable\""
scalar singleMecHost.upf.ppp[0] packetDropInterfaceDown:count 0
attr interpolationmode none
attr recordingmode count
attr source packetDropReasonIsInterfaceDown(packetDropped)
attr title "packet drops: interface down, count"
scalar singleMecHost.upf.ppp[0] packetDropInterfaceDown:sum(packetBytes) 0
attr interpolationmode none
attr recordingmode sum(packetBytes)
attr source packetDropReasonIsInterfaceDown(packetDropped)
attr title "packet drops: interface down, sum(packetBytes)"
scalar singleMecHost.upf.ppp[0] packetDropNoCarrier:count 0
attr interpolationmode none
attr recordingmode count
attr source packetDropReasonIsNoCarrier(packetDropped)
attr title "packet drops: no carrier, count"
scalar singleMecHost.upf.ppp[0] packetDropNoCarrier:sum(packetBytes) 0
attr interpolationmode none
attr recordingmode sum(packetBytes)
attr source packetDropReasonIsNoCarrier(packetDropped)
attr title "packet drops: no carrier, sum(packetBytes)"
par singleMecHost.upf.ppp[1].phys$i.channel typename "\"ned.IdealChannel\""
par singleMecHost.upf.ppp[1].ppp.phys$o.channel typename "\"ned.IdealChannel\""
par singleMecHost.upf.ppp[1].ppp.upperLayerOut.channel typename "\"ned.IdealChannel\""
par singleMecHost.upf.ppp[1].upperLayerIn.channel typename "\"ned.IdealChannel\""
par singleMecHost.upf.ppp[1].queue typename "\"inet.queueing.queue.DropTailQueue\""
par singleMecHost.upf.ppp[1].queue displayStringTextFormat "\"contains %p pk (%l) pushed %u\\npulled %o removed %r dropped %d\""
par singleMecHost.upf.ppp[1].queue packetCapacity 10000
par singleMecHost.upf.ppp[1].queue dataCapacity -1b
attr unit b
par singleMecHost.upf.ppp[1].queue dropperClass "\"inet::queueing::PacketAtCollectionEndDropper\""
par singleMecHost.upf.ppp[1].queue comparatorClass "\"\""
par singleMecHost.upf.ppp[1].queue bufferModule "\"\""
scalar singleMecHost.upf.ppp[1].queue queueLength:last 0
attr autoWarmupFilter false
attr interpolationmode sample-hold
attr recordingmode last
attr source "warmup(atomic(constant0(packetPushEnded) + count(packetPushStarted) - count(packetPulled) - count(packetRemoved) - count(packetDropped)))"
attr title "queue length, last"
attr unit pk
scalar singleMecHost.upf.ppp[1].queue queueLength:max 0
attr autoWarmupFilter false
attr interpolationmode sample-hold
attr recordingmode max
attr source "warmup(atomic(constant0(packetPushEnded) + count(packetPushStarted) - count(packetPulled) - count(packetRemoved) - count(packetDropped)))"
attr title "queue length, max"
attr unit pk
scalar singleMecHost.upf.ppp[1].queue queueLength:timeavg 0
attr autoWarmupFilter false
attr interpolationmode sample-hold
attr recordingmode timeavg
attr source "warmup(atomic(constant0(packetPushEnded) + count(packetPushStarted) - count(packetPulled) - count(packetRemoved) - count(packetDropped)))"
attr title "queue length, timeavg"
attr unit pk
scalar singleMecHost.upf.ppp[1].queue queueBitLength:last 0
attr autoWarmupFilter false
attr interpolationmode sample-hold
attr recordingmode last
attr source "warmup(atomic(constant0(packetPushEnded) + sum(packetLength(packetPushStarted)) - sum(packetLength(packetPulled)) - sum(packetLength(packetRemoved)) - sum(packetLength(packetDropped))))"
attr title "queue bit length, last"
attr unit b
scalar singleMecHost.upf.ppp[1].queue queueBitLength:max 0
attr autoWarmupFilter false
attr interpolationmode sample-hold
attr recordingmode max
attr source "warmup(atomic(constant0(packetPushEnded) + sum(packetLength(packetPushStarted)) - sum(packetLength(packetPulled)) - sum(packetLength(packetRemoved)) - sum(packetLength(packetDropped))))"
attr title "queue bit length, max"
attr unit b
scalar singleMecHost.upf.ppp[1].queue queueBitLength:timeavg 0
attr autoWarmupFilter false
attr interpolationmode sample-hold
attr recordingmode timeavg
attr source "warmup(atomic(constant0(packetPushEnded) + sum(packetLength(packetPushStarted)) - sum(packetLength(packetPulled)) - sum(packetLength(packetRemoved)) - sum(packetLength(packetDropped))))"
attr title "queue bit length, timeavg"
attr unit b
statistic singleMecHost.upf.ppp[1].queue queueingTime:histogram
field count 0
field mean -nan
field stddev nan
field min nan
field max nan
field sum 0
field sqrsum 0
attr interpolationmode none
attr recordingmode histogram
attr source queueingTime(packetPulled)
attr title "queueing times"
attr unit s
bin	-inf	0
bin	0	0
bin	1	0
scalar singleMecHost.upf.ppp[1].queue outgoingPackets:count 0
attr recordingmode count
attr source packetPulled
attr title "outgoing packets, count"
attr unit pk
scalar singleMecHost.upf.ppp[1].queue outgoingPacketLengths:sum 0
attr interpolationmode none
attr recordingmode sum
attr source packetLength(packetPulled)
attr title "outgoing packet lengths, sum"
attr unit b
statistic singleMecHost.upf.ppp[1].queue outgoingPacketLengths:histogram
field count 0
field mean -nan
field stddev nan
field min nan
field max nan
field sum 0
field sqrsum 0
attr interpolationmode none
attr recordingmode histogram
attr source packetLength(packetPulled)
attr title "outgoing packet lengths"
attr unit b
bin	-inf	0
bin	0	0
bin	1	0
statistic singleMecHost.upf.ppp[1].queue flowQueueingTime:histogram
field count 0
field mean -nan
field stddev nan
field min nan
field max nan
field sum 0
field sqrsum 0
attr interpolationmode none
attr recordingmode histogram
attr source queueingTime(demuxFlow(packetPulled))
attr title "flow queueing times"
attr unit s
bin	-inf	0
bin	0	0
bin	1	0
scalar singleMecHost.upf.ppp[1].queue incomingPackets:count 0
attr recordingmode count
attr source packetPushStarted
attr title "incoming packets, count"
attr unit pk
scalar singleMecHost.upf.ppp[1].queue incomingPacketLengths:sum 0
attr interpolationmode none
attr recordingmode sum
attr source packetLength(packetPushStarted)
attr title "incoming packet lengths, sum"
attr unit b
statistic singleMecHost.upf.ppp[1].queue incomingPacketLengths:histogram
field count 0
field mean -nan
field stddev nan
field min nan
field max nan
field sum 0
field sqrsum 0
attr interpolationmode none
attr recordingmode histogram
attr source packetLength(packetPushStarted)
attr title "incoming packet lengths"
attr unit b
bin	-inf	0
bin	0	0
bin	1	0
scalar singleMecHost.upf.ppp[1].queue droppedPacketsQueueOverflow:count 0
attr interpolationmode none
attr recordingmode count
attr source packetDropReasonIsQueueOverflow(packetDropped)
attr title "dropped packets: queue overflow, count"
attr unit pk
scalar singleMecHost.upf.ppp[1].queue droppedPacketLengthsQueueOverflow:sum 0
attr interpolationmode none
attr recordingmode sum
attr source packetLength(packetDropReasonIsQueueOverflow(packetDropped))
attr title "dropped packet lengths: queue overflow, sum"
attr unit b
par singleMecHost.upf.ppp[1].ppp typename "\"inet.linklayer.ppp.Ppp\""
par singleMecHost.upf.ppp[1].ppp interfaceTableModule "\"singleMecHost.upf.interfaceTable\""
par singleMecHost.upf.ppp[1].ppp displayStringTextFormat "\"rate: %b\\nsent: %s, rcvd: %r\\nqueue: %q, drop: %d\""
par singleMecHost.upf.ppp[1].ppp sendRawBytes false
par singleMecHost.upf.ppp[1].ppp mtu 4470B
attr unit B
par singleMecHost.upf.ppp[1].ppp stopOperationExtraTime -1s
attr unit s
par singleMecHost.upf.ppp[1].ppp stopOperationTimeout 2s
attr unit s
scalar singleMecHost.upf.ppp[1].ppp transmissionState:timeavg 0
attr interpolationmode sample-hold
attr recordingmode timeavg
attr source transmissionStateChanged
attr title "tx state, timeavg"
scalar singleMecHost.upf.ppp[1].ppp rxPkOk:count 0
attr interpolationmode none
attr recordingmode count
attr source rxPkOk
attr title "packets received OK, count"
scalar singleMecHost.upf.ppp[1].ppp rxPkOk:sum(packetBytes) 0
attr interpolationmode none
attr recordingmode sum(packetBytes)
attr source rxPkOk
attr title "packets received OK, sum(packetBytes)"
scalar singleMecHost.upf.ppp[1].ppp txPk:count 0
attr interpolationmode none
attr recordingmode count
attr source packetSentToLower
attr title "packets transmitted, count"
scalar singleMecHost.upf.ppp[1].ppp txPk:sum(packetBytes) 0
attr interpolationmode none
attr recordingmode sum(packetBytes)
attr source packetSentToLower
attr title "packets transmitted, sum(packetBytes)"
scalar singleMecHost.upf.ppp[1].ppp rcvdPkFromHl:count 0
attr interpolationmode none
attr recordingmode count
attr source packetReceivedFromUpper
attr title "packets received from higher layer, count"
scalar singleMecHost.upf.ppp[1].ppp rcvdPkFromHl:sum(packetBytes) 0
attr interpolationmode none
attr recordingmode sum(packetBytes)
attr source packetReceivedFromUpper
attr title "packets received from higher layer, sum(packetBytes)"
scalar singleMecHost.upf.ppp[1].ppp passedUpPk:count 0
attr interpolationmode none
attr recordingmode count
attr source packetSentToUpper
attr title "packets passed to higher layer, count"
scalar singleMecHost.upf.ppp[1].ppp passedUpPk:sum(packetBytes) 0
attr interpolationmode none
attr recordingmode sum(packetBytes)
attr source packetSentToUpper
attr title "packets passed to higher layer, sum(packetBytes)"
scalar singleMecHost.upf.ppp[1].ppp packetDropIncorrectlyReceived:count 0
attr interpolationmode none
attr recordingmode count
attr source packetDropReasonIsIncorrectlyReceived(packetDropped)
attr title "packet drop: incorrectly received, count"
scalar singleMecHost.upf.ppp[1].ppp packetDropIncorrectlyReceived:sum(packetBytes) 0
attr interpolationmode none
attr recordingmode sum(packetBytes)
attr source packetDropReasonIsIncorrectlyReceived(packetDropped)
attr title "packet drop: incorrectly received, sum(packetBytes)"
scalar singleMecHost.upf.ppp[1].ppp packetDropInterfaceDown:count 0
attr interpolationmode none
attr recordingmode count
attr source packetDropReasonIsInterfaceDown(packetDropped)
attr title "packet drop: interface down, count"
scalar singleMecHost.upf.ppp[1].ppp packetDropInterfaceDown:sum(packetBytes) 0
attr interpolationmode none
attr recordingmode sum(packetBytes)
attr source packetDropReasonIsInterfaceDown(packetDropped)
attr title "packet drop: interface down, sum(packetBytes)"
par singleMecHost.upf.ppp[1] typename "\"inet.linklayer.ppp.PppInterface\""
par singleMecHost.upf.ppp[1] displayStringTextFormat "\"%a (%i)\\n%m\""
par singleMecHost.upf.ppp[1] recordPcap false
par singleMecHost.upf.ppp[1] numPcapRecorders 0
par singleMecHost.upf.ppp[1] interfaceTableModule "\"singleMecHost.upf.interfaceTable\""
scalar singleMecHost.upf.ppp[1] packetDropInterfaceDown:count 0
attr interpolationmode none
attr recordingmode count
attr source packetDropReasonIsInterfaceDown(packetDropped)
attr title "packet drops: interface down, count"
scalar singleMecHost.upf.ppp[1] packetDropInterfaceDown:sum(packetBytes) 0
attr interpolationmode none
attr recordingmode sum(packetBytes)
attr source packetDropReasonIsInterfaceDown(packetDropped)
attr title "packet drops: interface down, sum(packetBytes)"
scalar singleMecHost.upf.ppp[1] packetDropNoCarrier:count 0
attr interpolationmode none
attr recordingmode count
attr source packetDropReasonIsNoCarrier(packetDropped)
attr title "packet drops: no carrier, count"
scalar singleMecHost.upf.ppp[1] packetDropNoCarrier:sum(packetBytes) 0
attr interpolationmode none
attr recordingmode sum(packetBytes)
attr source packetDropReasonIsNoCarrier(packetDropped)
attr title "packet drops: no carrier, sum(packetBytes)"
par singleMecHost.upf.ppp[2].phys$i.channel typename "\"ned.IdealChannel\""
par singleMecHost.upf.ppp[2].ppp.phys$o.channel typename "\"ned.IdealChannel\""
par singleMecHost.upf.ppp[2].ppp.upperLayerOut.channel typename "\"ned.IdealChannel\""
par singleMecHost.upf.ppp[2].upperLayerIn.channel typename "\"ned.IdealChannel\""
par singleMecHost.upf.ppp[2].queue typename "\"inet.queueing.queue.DropTailQueue\""
par singleMecHost.upf.ppp[2].queue displayStringTextFormat "\"contains %p pk (%l) pushed %u\\npulled %o removed %r dropped %d\""
par singleMecHost.upf.ppp[2].queue packetCapacity 10000
par singleMecHost.upf.ppp[2].queue dataCapacity -1b
attr unit b
par singleMecHost.upf.ppp[2].queue dropperClass "\"inet::queueing::PacketAtCollectionEndDropper\""
par singleMecHost.upf.ppp[2].queue comparatorClass "\"\""
par singleMecHost.upf.ppp[2].queue bufferModule "\"\""
scalar singleMecHost.upf.ppp[2].queue queueLength:last 0
attr autoWarmupFilter false
attr interpolationmode sample-hold
attr recordingmode last
attr source "warmup(atomic(constant0(packetPushEnded) + count(packetPushStarted) - count(packetPulled) - count(packetRemoved) - count(packetDropped)))"
attr title "queue length, last"
attr unit pk
scalar singleMecHost.upf.ppp[2].queue queueLength:max 0
attr autoWarmupFilter false
attr interpolationmode sample-hold
attr recordingmode max
attr source "warmup(atomic(constant0(packetPushEnded) + count(packetPushStarted) - count(packetPulled) - count(packetRemoved) - count(packetDropped)))"
attr title "queue length, max"
attr unit pk
scalar singleMecHost.upf.ppp[2].queue queueLength:timeavg 0
attr autoWarmupFilter false
attr interpolationmode sample-hold
attr recordingmode timeavg
attr source "warmup(atomic(constant0(packetPushEnded) + count(packetPushStarted) - count(packetPulled) - count(packetRemoved) - count(packetDropped)))"
attr title "queue length, timeavg"
attr unit pk
scalar singleMecHost.upf.ppp[2].queue queueBitLength:last 0
attr autoWarmupFilter false
attr interpolationmode sample-hold
attr recordingmode last
attr source "warmup(atomic(constant0(packetPushEnded) + sum(packetLength(packetPushStarted)) - sum(packetLength(packetPulled)) - sum(packetLength(packetRemoved)) - sum(packetLength(packetDropped))))"
attr title "queue bit length, last"
attr unit b
scalar singleMecHost.upf.ppp[2].queue queueBitLength:max 0
attr autoWarmupFilter false
attr interpolationmode sample-hold
attr recordingmode max
attr source "warmup(atomic(constant0(packetPushEnded) + sum(packetLength(packetPushStarted)) - sum(packetLength(packetPulled)) - sum(packetLength(packetRemoved)) - sum(packetLength(packetDropped))))"
attr title "queue bit length, max"
attr unit b
scalar singleMecHost.upf.ppp[2].queue queueBitLength:timeavg 0
attr autoWarmupFilter false
attr interpolationmode sample-hold
attr recordingmode timeavg
attr source "warmup(atomic(constant0(packetPushEnded) + sum(packetLength(packetPushStarted)) - sum(packetLength(packetPulled)) - sum(packetLength(packetRemoved)) - sum(packetLength(packetDropped))))"
attr title "queue bit length, timeavg"
attr unit b
statistic singleMecHost.upf.ppp[2].queue queueingTime:histogram
field count 0
field mean -nan
field stddev nan
field min nan
field max nan
field sum 0
field sqrsum 0
attr interpolationmode none
attr recordingmode histogram
attr source queueingTime(packetPulled)
attr title "queueing times"
attr unit s
bin	-inf	0
bin	0	0
bin	1	0
scalar singleMecHost.upf.ppp[2].queue outgoingPackets:count 0
attr recordingmode count
attr source packetPulled
attr title "outgoing packets, count"
attr unit pk
scalar singleMecHost.upf.ppp[2].queue outgoingPacketLengths:sum 0
attr interpolationmode none
attr recordingmode sum
attr source packetLength(packetPulled)
attr title "outgoing packet lengths, sum"
attr unit b
statistic singleMecHost.upf.ppp[2].queue outgoingPacketLengths:histogram
field count 0
field mean -nan
field stddev nan
field min nan
field max nan
field sum 0
field sqrsum 0
attr interpolationmode none
attr recordingmode histogram
attr source packetLength(packetPulled)
attr title "outgoing packet lengths"
attr unit b
bin	-inf	0
bin	0	0
bin	1	0
statistic singleMecHost.upf.ppp[2].queue flowQueueingTime:histogram
field count 0
field mean -nan
field stddev nan
field min nan
field max nan
field sum 0
field sqrsum 0
attr interpolationmode none
attr recordingmode histogram
attr source queueingTime(demuxFlow(packetPulled))
attr title "flow queueing times"
attr unit s
bin	-inf	0
bin	0	0
bin	1	0
scalar singleMecHost.upf.ppp[2].queue incomingPackets:count 0
attr recordingmode count
attr source packetPushStarted
attr title "incoming packets, count"
attr unit pk
scalar singleMecHost.upf.ppp[2].queue incomingPacketLengths:sum 0
attr interpolationmode none
attr recordingmode sum
attr source packetLength(packetPushStarted)
attr title "incoming packet lengths, sum"
attr unit b
statistic singleMecHost.upf.ppp[2].queue incomingPacketLengths:histogram
field count 0
field mean -nan
field stddev nan
field min nan
field max nan
field sum 0
field sqrsum 0
attr interpolationmode none
attr recordingmode histogram
attr source packetLength(packetPushStarted)
attr title "incoming packet lengths"
attr unit b
bin	-inf	0
bin	0	0
bin	1	0
scalar singleMecHost.upf.ppp[2].queue droppedPacketsQueueOverflow:count 0
attr interpolationmode none
attr recordingmode count
attr source packetDropReasonIsQueueOverflow(packetDropped)
attr title "dropped packets: queue overflow, count"
attr unit pk
scalar singleMecHost.upf.ppp[2].queue droppedPacketLengthsQueueOverflow:sum 0
attr interpolationmode none
attr recordingmode sum
attr source packetLength(packetDropReasonIsQueueOverflow(packetDropped))
attr title "dropped packet lengths: queue overflow, sum"
attr unit b
par singleMecHost.upf.ppp[2].ppp typename "\"inet.linklayer.ppp.Ppp\""
par singleMecHost.upf.ppp[2].ppp interfaceTableModule "\"singleMecHost.upf.interfaceTable\""
par singleMecHost.upf.ppp[2].ppp displayStringTextFormat "\"rate: %b\\nsent: %s, rcvd: %r\\nqueue: %q, drop: %d\""
par singleMecHost.upf.ppp[2].ppp sendRawBytes false
par singleMecHost.upf.ppp[2].ppp mtu 4470B
attr unit B
par singleMecHost.upf.ppp[2].ppp stopOperationExtraTime -1s
attr unit s
par singleMecHost.upf.ppp[2].ppp stopOperationTimeout 2s
attr unit s
scalar singleMecHost.upf.ppp[2].ppp transmissionState:timeavg 0
attr interpolationmode sample-hold
attr recordingmode timeavg
attr source transmissionStateChanged
attr title "tx state, timeavg"
scalar singleMecHost.upf.ppp[2].ppp rxPkOk:count 0
attr interpolationmode none
attr recordingmode count
attr source rxPkOk
attr title "packets received OK, count"
scalar singleMecHost.upf.ppp[2].ppp rxPkOk:sum(packetBytes) 0
attr interpolationmode none
attr recordingmode sum(packetBytes)
attr source rxPkOk
attr title "packets received OK, sum(packetBytes)"
scalar singleMecHost.upf.ppp[2].ppp txPk:count 0
attr interpolationmode none
attr recordingmode count
attr source packetSentToLower
attr title "packets transmitted, count"
scalar singleMecHost.upf.ppp[2].ppp txPk:sum(packetBytes) 0
attr interpolationmode none
attr recordingmode sum(packetBytes)
attr source packetSentToLower
attr title "packets transmitted, sum(packetBytes)"
scalar singleMecHost.upf.ppp[2].ppp rcvdPkFromHl:count 0
attr interpolationmode none
attr recordingmode count
attr source packetReceivedFromUpper
attr title "packets received from higher layer, count"
scalar singleMecHost.upf.ppp[2].ppp rcvdPkFromHl:sum(packetBytes) 0
attr interpolationmode none
attr recordingmode sum(packetBytes)
attr source packetReceivedFromUpper
attr title "packets received from higher layer, sum(packetBytes)"
scalar singleMecHost.upf.ppp[2].ppp passedUpPk:count 0
attr interpolationmode none
attr recordingmode count
attr source packetSentToUpper
attr title "packets passed to higher layer, count"
scalar singleMecHost.upf.ppp[2].ppp passedUpPk:sum(packetBytes) 0
attr interpolationmode none
attr recordingmode sum(packetBytes)
attr source packetSentToUpper
attr title "packets passed to higher layer, sum(packetBytes)"
scalar singleMecHost.upf.ppp[2].ppp packetDropIncorrectlyReceived:count 0
attr interpolationmode none
attr recordingmode count
attr source packetDropReasonIsIncorrectlyReceived(packetDropped)
attr title "packet drop: incorrectly received, count"
scalar singleMecHost.upf.ppp[2].ppp packetDropIncorrectlyReceived:sum(packetBytes) 0
attr interpolationmode none
attr recordingmode sum(packetBytes)
attr source packetDropReasonIsIncorrectlyReceived(packetDropped)
attr title "packet drop: incorrectly received, sum(packetBytes)"
scalar singleMecHost.upf.ppp[2].ppp packetDropInterfaceDown:count 0
attr interpolationmode none
attr recordingmode count
attr source packetDropReasonIsInterfaceDown(packetDropped)
attr title "packet drop: interface down, count"
scalar singleMecHost.upf.ppp[2].ppp packetDropInterfaceDown:sum(packetBytes) 0
attr interpolationmode none
attr recordingmode sum(packetBytes)
attr source packetDropReasonIsInterfaceDown(packetDropped)
attr title "packet drop: interface down, sum(packetBytes)"
par singleMecHost.upf.ppp[2] typename "\"inet.linklayer.ppp.PppInterface\""
par singleMecHost.upf.ppp[2] displayStringTextFormat "\"%a (%i)\\n%m\""
par singleMecHost.upf.ppp[2] recordPcap false
par singleMecHost.upf.ppp[2] numPcapRecorders 0
par singleMecHost.upf.ppp[2] interfaceTableModule "\"singleMecHost.upf.interfaceTable\""
scalar singleMecHost.upf.ppp[2] packetDropInterfaceDown:count 0
attr interpolationmode none
attr recordingmode count
attr source packetDropReasonIsInterfaceDown(packetDropped)
attr title "packet drops: interface down, count"
scalar singleMecHost.upf.ppp[2] packetDropInterfaceDown:sum(packetBytes) 0
attr interpolationmode none
attr recordingmode sum(packetBytes)
attr source packetDropReasonIsInterfaceDown(packetDropped)
attr title "packet drops: interface down, sum(packetBytes)"
scalar singleMecHost.upf.ppp[2] packetDropNoCarrier:count 0
attr interpolationmode none
attr recordingmode count
attr source packetDropReasonIsNoCarrier(packetDropped)
attr title "packet drops: no carrier, count"
scalar singleMecHost.upf.ppp[2] packetDropNoCarrier:sum(packetBytes) 0
attr interpolationmode none
attr recordingmode sum(packetBytes)
attr source packetDropReasonIsNoCarrier(packetDropped)
attr title "packet drops: no carrier, sum(packetBytes)"
par singleMecHost.upf.ppp[3].phys$i.channel typename "\"ned.IdealChannel\""
par singleMecHost.upf.ppp[3].ppp.phys$o.channel typename "\"ned.IdealChannel\""
par singleMecHost.upf.ppp[3].ppp.upperLayerOut.channel typename "\"ned.IdealChannel\""
par singleMecHost.upf.ppp[3].upperLayerIn.channel typename "\"ned.IdealChannel\""
par singleMecHost.upf.ppp[3].queue typename "\"inet.queueing.queue.DropTailQueue\""
par singleMecHost.upf.ppp[3].queue displayStringTextFormat "\"contains %p pk (%l) pushed %u\\npulled %o removed %r dropped %d\""
par singleMecHost.upf.ppp[3].queue packetCapacity 10000
par singleMecHost.upf.ppp[3].queue dataCapacity -1b
attr unit b
par singleMecHost.upf.ppp[3].queue dropperClass "\"inet::queueing::PacketAtCollectionEndDropper\""
par singleMecHost.upf.ppp[3].queue comparatorClass "\"\""
par singleMecHost.upf.ppp[3].queue bufferModule "\"\""
scalar singleMecHost.upf.ppp[3].queue queueLength:last 0
attr autoWarmupFilter false
attr interpolationmode sample-hold
attr recordingmode last
attr source "warmup(atomic(constant0(packetPushEnded) + count(packetPushStarted) - count(packetPulled) - count(packetRemoved) - count(packetDropped)))"
attr title "queue length, last"
attr unit pk
scalar singleMecHost.upf.ppp[3].queue queueLength:max 0
attr autoWarmupFilter false
attr interpolationmode sample-hold
attr recordingmode max
attr source "warmup(atomic(constant0(packetPushEnded) + count(packetPushStarted) - count(packetPulled) - count(packetRemoved) - count(packetDropped)))"
attr title "queue length, max"
attr unit pk
scalar singleMecHost.upf.ppp[3].queue queueLength:timeavg 0
attr autoWarmupFilter false
attr interpolationmode sample-hold
attr recordingmode timeavg
attr source "warmup(atomic(constant0(packetPushEnded) + count(packetPushStarted) - count(packetPulled) - count(packetRemoved) - count(packetDropped)))"
attr title "queue length, timeavg"
attr unit pk
scalar singleMecHost.upf.ppp[3].queue queueBitLength:last 0
attr autoWarmupFilter false
attr interpolationmode sample-hold
attr recordingmode last
attr source "warmup(atomic(constant0(packetPushEnded) + sum(packetLength(packetPushStarted)) - sum(packetLength(packetPulled)) - sum(packetLength(packetRemoved)) - sum(packetLength(packetDropped))))"
attr title "queue bit length, last"
attr unit b
scalar singleMecHost.upf.ppp[3].queue queueBitLength:max 0
attr autoWarmupFilter false
attr interpolationmode sample-hold
attr recordingmode max
attr source "warmup(atomic(constant0(packetPushEnded) + sum(packetLength(packetPushStarted)) - sum(packetLength(packetPulled)) - sum(packetLength(packetRemoved)) - sum(packetLength(packetDropped))))"
attr title "queue bit length, max"
attr unit b
scalar singleMecHost.upf.ppp[3].queue queueBitLength:timeavg 0
attr autoWarmupFilter false
attr interpolationmode sample-hold
attr recordingmode timeavg
attr source "warmup(atomic(constant0(packetPushEnded) + sum(packetLength(packetPushStarted)) - sum(packetLength(packetPulled)) - sum(packetLength(packetRemoved)) - sum(packetLength(packetDropped))))"
attr title "queue bit length, timeavg"
attr unit b
statistic singleMecHost.upf.ppp[3].queue queueingTime:histogram
field count 0
field mean -nan
field stddev nan
field min nan
field max nan
field sum 0
field sqrsum 0
attr interpolationmode none
attr recordingmode histogram
attr source queueingTime(packetPulled)
attr title "queueing times"
attr unit s
bin	-inf	0
bin	0	0
bin	1	0
scalar singleMecHost.upf.ppp[3].queue outgoingPackets:count 0
attr recordingmode count
attr source packetPulled
attr title "outgoing packets, count"
attr unit pk
scalar singleMecHost.upf.ppp[3].queue outgoingPacketLengths:sum 0
attr interpolationmode none
attr recordingmode sum
attr source packetLength(packetPulled)
attr title "outgoing packet lengths, sum"
attr unit b
statistic singleMecHost.upf.ppp[3].queue outgoingPacketLengths:histogram
field count 0
field mean -nan
field stddev nan
field min nan
field max nan
field sum 0
field sqrsum 0
attr interpolationmode none
attr recordingmode histogram
attr source packetLength(packetPulled)
attr title "outgoing packet lengths"
attr unit b
bin	-inf	0
bin	0	0
bin	1	0
statistic singleMecHost.upf.ppp[3].queue flowQueueingTime:histogram
field count 0
field mean -nan
field stddev nan
field min nan
field max nan
field sum 0
field sqrsum 0
attr interpolationmode none
attr recordingmode histogram
attr source queueingTime(demuxFlow(packetPulled))
attr title "flow queueing times"
attr unit s
bin	-inf	0
bin	0	0
bin	1	0
scalar singleMecHost.upf.ppp[3].queue incomingPackets:count 0
attr recordingmode count
attr source packetPushStarted
attr title "incoming packets, count"
attr unit pk
scalar singleMecHost.upf.ppp[3].queue incomingPacketLengths:sum 0
attr interpolationmode none
attr recordingmode sum
attr source packetLength(packetPushStarted)
attr title "incoming packet lengths, sum"
attr unit b
statistic singleMecHost.upf.ppp[3].queue incomingPacketLengths:histogram
field count 0
field mean -nan
field stddev nan
field min nan
field max nan
field sum 0
field sqrsum 0
attr interpolationmode none
attr recordingmode histogram
attr source packetLength(packetPushStarted)
attr title "incoming packet lengths"
attr unit b
bin	-inf	0
bin	0	0
bin	1	0
scalar singleMecHost.upf.ppp[3].queue droppedPacketsQueueOverflow:count 0
attr interpolationmode none
attr recordingmode count
attr source packetDropReasonIsQueueOverflow(packetDropped)
attr title "dropped packets: queue overflow, count"
attr unit pk
scalar singleMecHost.upf.ppp[3].queue droppedPacketLengthsQueueOverflow:sum 0
attr interpolationmode none
attr recordingmode sum
attr source packetLength(packetDropReasonIsQueueOverflow(packetDropped))
attr title "dropped packet lengths: queue overflow, sum"
attr unit b
par singleMecHost.upf.ppp[3].ppp typename "\"inet.linklayer.ppp.Ppp\""
par singleMecHost.upf.ppp[3].ppp interfaceTableModule "\"singleMecHost.upf.interfaceTable\""
par singleMecHost.upf.ppp[3].ppp displayStringTextFormat "\"rate: %b\\nsent: %s, rcvd: %r\\nqueue: %q, drop: %d\""
par singleMecHost.upf.ppp[3].ppp sendRawBytes false
[...]
bin	385	0
statistic singleMecHost.coreServer4.upf_mec.pppIf.queue flowQueueingTime:histogram
field count 0
field mean -nan
field stddev nan
field min nan
field max nan
field sum 0
field sqrsum 0
attr interpolationmode none
attr recordingmode histogram
attr source queueingTime(demuxFlow(packetPulled))
attr title "flow queueing times"
attr unit s
bin	-inf	0
bin	0	0
bin	1	0
scalar singleMecHost.coreServer4.upf_mec.pppIf.queue incomingPackets:count 7
attr recordingmode count
attr source packetPushStarted
attr title "incoming packets, count"
attr unit pk
scalar singleMecHost.coreServer4.upf_mec.pppIf.queue incomingPacketLengths:sum 2688
attr interpolationmode none
attr recordingmode sum
attr source packetLength(packetPushStarted)
attr title "incoming packet lengths, sum"
attr unit b
statistic singleMecHost.coreServer4.upf_mec.pppIf.queue incomingPacketLengths:histogram
field count 7
field mean 384
field stddev 0
field min 384
field max 384
field sum 2688
field sqrsum 1032192
attr interpolationmode none
attr recordingmode histogram
attr source packetLength(packetPushStarted)
attr title "incoming packet lengths"
attr unit b
bin	-inf	0
bin	383	0
bin	384	7
bin	385	0
scalar singleMecHost.coreServer4.upf_mec.pppIf.queue droppedPacketsQueueOverflow:count 0
attr interpolationmode none
attr recordingmode count
attr source packetDropReasonIsQueueOverflow(packetDropped)
attr title "dropped packets: queue overflow, count"
attr unit pk
scalar singleMecHost.coreServer4.upf_mec.pppIf.queue droppedPacketLengthsQueueOverflow:sum 0
attr interpolationmode none
attr recordingmode sum
attr source packetLength(packetDropReasonIsQueueOverflow(packetDropped))
attr title "dropped packet lengths: queue overflow, sum"
attr unit b
par singleMecHost.coreServer4.upf_mec.pppIf.ppp typename "\"inet.linklayer.ppp.Ppp\""
par singleMecHost.coreServer4.upf_mec.pppIf.ppp interfaceTableModule "\"singleMecHost.coreServer4.upf_mec.interfaceTable\""
par singleMecHost.coreServer4.upf_mec.pppIf.ppp displayStringTextFormat "\"rate: %b\\nsent: %s, rcvd: %r\\nqueue: %q, drop: %d\""
par singleMecHost.coreServer4.upf_mec.pppIf.ppp sendRawBytes false
par singleMecHost.coreServer4.upf_mec.pppIf.ppp mtu 4470B
attr unit B
par singleMecHost.coreServer4.upf_mec.pppIf.ppp stopOperationExtraTime -1s
attr unit s
par singleMecHost.coreServer4.upf_mec.pppIf.ppp stopOperationTimeout 2s
attr unit s
scalar singleMecHost.coreServer4.upf_mec.pppIf.ppp transmissionState:timeavg 2.7232537577365e-07
attr interpolationmode sample-hold
attr recordingmode timeavg
attr source transmissionStateChanged
attr title "tx state, timeavg"
scalar singleMecHost.coreServer4.upf_mec.pppIf.ppp rxPkOk:count 7
attr interpolationmode none
attr recordingmode count
attr source rxPkOk
attr title "packets received OK, count"
scalar singleMecHost.coreServer4.upf_mec.pppIf.ppp rxPkOk:sum(packetBytes) 259
attr interpolationmode none
attr recordingmode sum(packetBytes)
attr source rxPkOk
attr title "packets received OK, sum(packetBytes)"
scalar singleMecHost.coreServer4.upf_mec.pppIf.ppp txPk:count 7
attr interpolationmode none
attr recordingmode count
attr source packetSentToLower
attr title "packets transmitted, count"
scalar singleMecHost.coreServer4.upf_mec.pppIf.ppp txPk:sum(packetBytes) 385
attr interpolationmode none
attr recordingmode sum(packetBytes)
attr source packetSentToLower
attr title "packets transmitted, sum(packetBytes)"
scalar singleMecHost.coreServer4.upf_mec.pppIf.ppp rcvdPkFromHl:count 0
attr interpolationmode none
attr recordingmode count
attr source packetReceivedFromUpper
attr title "packets received from higher layer, count"
scalar singleMecHost.coreServer4.upf_mec.pppIf.ppp rcvdPkFromHl:sum(packetBytes) 0
attr interpolationmode none
attr recordingmode sum(packetBytes)
attr source packetReceivedFromUpper
attr title "packets received from higher layer, sum(packetBytes)"
scalar singleMecHost.coreServer4.upf_mec.pppIf.ppp passedUpPk:count 7
attr interpolationmode none
attr recordingmode count
attr source packetSentToUpper
attr title "packets passed to higher layer, count"
scalar singleMecHost.coreServer4.upf_mec.pppIf.ppp passedUpPk:sum(packetBytes) 210
attr interpolationmode none
attr recordingmode sum(packetBytes)
attr source packetSentToUpper
attr title "packets passed to higher layer, sum(packetBytes)"
scalar singleMecHost.coreServer4.upf_mec.pppIf.ppp packetDropIncorrectlyReceived:count 0
attr interpolationmode none
attr recordingmode count
attr source packetDropReasonIsIncorrectlyReceived(packetDropped)
attr title "packet drop: incorrectly received, count"
scalar singleMecHost.coreServer4.upf_mec.pppIf.ppp packetDropIncorrectlyReceived:sum(packetBytes) 0
attr interpolationmode none
attr recordingmode sum(packetBytes)
attr source packetDropReasonIsIncorrectlyReceived(packetDropped)
attr title "packet drop: incorrectly received, sum(packetBytes)"
scalar singleMecHost.coreServer4.upf_mec.pppIf.ppp packetDropInterfaceDown:count 0
attr interpolationmode none
attr recordingmode count
attr source packetDropReasonIsInterfaceDown(packetDropped)
attr title "packet drop: interface down, count"
scalar singleMecHost.coreServer4.upf_mec.pppIf.ppp packetDropInterfaceDown:sum(packetBytes) 0
attr interpolationmode none
attr recordingmode sum(packetBytes)
attr source packetDropReasonIsInterfaceDown(packetDropped)
attr title "packet drop: interface down, sum(packetBytes)"
par singleMecHost.coreServer4.upf_mec.pppIf typename "\"inet.linklayer.ppp.PppInterface\""
par singleMecHost.coreServer4.upf_mec.pppIf displayStringTextFormat "\"%a (%i)\\n%m\""
par singleMecHost.coreServer4.upf_mec.pppIf recordPcap false
par singleMecHost.coreServer4.upf_mec.pppIf numPcapRecorders 0
par singleMecHost.coreServer4.upf_mec.pppIf interfaceTableModule "\"singleMecHost.coreServer4.upf_mec.interfaceTable\""
scalar singleMecHost.coreServer4.upf_mec.pppIf packetDropInterfaceDown:count 0
attr interpolationmode none
attr recordingmode count
attr source packetDropReasonIsInterfaceDown(packetDropped)
attr title "packet drops: interface down, count"
scalar singleMecHost.coreServer4.upf_mec.pppIf packetDropInterfaceDown:sum(packetBytes) 0
attr interpolationmode none
attr recordingmode sum(packetBytes)
attr source packetDropReasonIsInterfaceDown(packetDropped)
attr title "packet drops: interface down, sum(packetBytes)"
scalar singleMecHost.coreServer4.upf_mec.pppIf packetDropNoCarrier:count 0
attr interpolationmode none
attr recordingmode count
attr source packetDropReasonIsNoCarrier(packetDropped)
attr title "packet drops: no carrier, count"
scalar singleMecHost.coreServer4.upf_mec.pppIf packetDropNoCarrier:sum(packetBytes) 0
attr interpolationmode none
attr recordingmode sum(packetBytes)
attr source packetDropReasonIsNoCarrier(packetDropped)
attr title "packet drops: no carrier, sum(packetBytes)"
par singleMecHost.coreServer4.upf_mec.udp typename "\"inet.transportlayer.udp.Udp\""
par singleMecHost.coreServer4.upf_mec.udp interfaceTableModule "\"singleMecHost.coreServer4.upf_mec.interfaceTable\""
par singleMecHost.coreServer4.upf_mec.udp icmpModule "\"^.ipv4.icmp\""
par singleMecHost.coreServer4.upf_mec.udp icmpv6Module "\"^.ipv6.icmpv6\""
par singleMecHost.coreServer4.upf_mec.udp crcMode "\"declared\""
attr enum disabled,declared,computed
par singleMecHost.coreServer4.upf_mec.udp defaultMulticastLoop true
scalar singleMecHost.coreServer4.upf_mec.udp packetReceived:count 7
attr interpolationmode none
attr recordingmode count
attr source packetReceived
attr title "packets received, count"
scalar singleMecHost.coreServer4.upf_mec.udp packetReceived:sum(packetBytes) 448
attr interpolationmode none
attr recordingmode sum(packetBytes)
attr source packetReceived
attr title "packets received, sum(packetBytes)"
scalar singleMecHost.coreServer4.upf_mec.udp packetSent:count 7
attr interpolationmode none
attr recordingmode count
attr source packetSent
attr title "packets sent, count"
scalar singleMecHost.coreServer4.upf_mec.udp packetSent:sum(packetBytes) 322
attr interpolationmode none
attr recordingmode sum(packetBytes)
attr source packetSent
attr title "packets sent, sum(packetBytes)"
scalar singleMecHost.coreServer4.upf_mec.udp passedUpPk:count 7
attr interpolationmode none
attr recordingmode count
attr source packetSentToUpper
attr title "packets passed up, count"
scalar singleMecHost.coreServer4.upf_mec.udp droppedPkWrongPort:count 0
attr interpolationmode none
attr recordingmode count
attr source packetDropReasonIsNoPortFound(packetDropped)
attr title "packets dropped (wrong port), count"
scalar singleMecHost.coreServer4.upf_mec.udp droppedPkBadChecksum:count 0
attr interpolationmode none
attr recordingmode count
attr source packetDropReasonIsIncorrectlyReceived(packetDropped)
attr title "packets dropped (checksum error), count"
par singleMecHost.coreServer4.upf_mec.trafficFlowFilter typename "\"simu5g.corenetwork.trafficFlowFilter.TrafficFlowFilter\""
par singleMecHost.coreServer4.upf_mec.trafficFlowFilter ownerType "\"UPF_MEC\""
par singleMecHost.coreServer4.upf_mec.trafficFlowFilter fastForwarding true
par singleMecHost.coreServer4.upf_mec.gtp_user typename "\"simu5g.corenetwork.gtp.GtpUser\""
par singleMecHost.coreServer4.upf_mec.gtp_user interfaceTableModule "\"singleMecHost.coreServer4.upf_mec.interfaceTable\""
par singleMecHost.coreServer4.upf_mec.gtp_user ipOutInterface "\"\""
par singleMecHost.coreServer4.upf_mec.gtp_user localPort 31
par singleMecHost.coreServer4.upf_mec.gtp_user tunnelPeerPort 31
par singleMecHost.coreServer4.upf_mec.gtp_user filter true
par singleMecHost.coreServer4.upf_mec.tn typename "\"inet.common.MessageDispatcher\""
par singleMecHost.coreServer4.upf_mec.tn displayStringTextFormat "\"processed %p pk (%l)\""
par singleMecHost.coreServer4.upf_mec.tn forwardServiceRegistration true
par singleMecHost.coreServer4.upf_mec.tn forwardProtocolRegistration true
par singleMecHost.coreServer4.upf_mec.at typename "\"inet.common.MessageDispatcher\""
par singleMecHost.coreServer4.upf_mec.at displayStringTextFormat "\"processed %p pk (%l)\""
par singleMecHost.coreServer4.upf_mec.at forwardServiceRegistration true
par singleMecHost.coreServer4.upf_mec.at forwardProtocolRegistration true
par singleMecHost.coreServer4.upf_mec typename "\"simu5g.nodes.Upf\""
par singleMecHost.coreServer4.upf_mec hasStatus false
par singleMecHost.coreServer4.upf_mec osgModel "\"\""
par singleMecHost.coreServer4.upf_mec osgModelColor "\"\""
par singleMecHost.coreServer4.upf_mec canvasImage "\"\""
par singleMecHost.coreServer4.upf_mec canvasImageColor "\"\""
par singleMecHost.coreServer4.upf_mec recordPcap false
par singleMecHost.coreServer4.upf_mec numPcapRecorders 0
par singleMecHost.coreServer4.upf_mec numLoInterfaces 1
par singleMecHost.coreServer4.upf_mec numWlanInterfaces 0
par singleMecHost.coreServer4.upf_mec numEthInterfaces 0
par singleMecHost.coreServer4.upf_mec numPppInterfaces 0
par singleMecHost.coreServer4.upf_mec numTunInterfaces 0
par singleMecHost.coreServer4.upf_mec numVirtInterfaces 0
par singleMecHost.coreServer4.upf_mec fcsMode "\"declared\""
attr enum declared,computed
par singleMecHost.coreServer4.upf_mec hasIpv4 true
par singleMecHost.coreServer4.upf_mec hasIpv6 false
par singleMecHost.coreServer4.upf_mec hasGn false
par singleMecHost.coreServer4.upf_mec forwarding true
par singleMecHost.coreServer4.upf_mec multicastForwarding false
par singleMecHost.coreServer4.upf_mec nodeType "\"UPF_MEC\""
par singleMecHost.coreServer4.MECWarningAlertApp[63184048] typename "\"simu5g.apps.mec.WarningAlert.MECWarningAlertApp\""
par singleMecHost.coreServer4.MECWarningAlertApp[63184048] packetSize 10
par singleMecHost.coreServer4.MECWarningAlertApp[63184048] interfaceTableModule "\"\""
par singleMecHost.coreServer4.MECWarningAlertApp[63184048] mecAppId 326
par singleMecHost.coreServer4.MECWarningAlertApp[63184048] localUePort 4001
par singleMecHost.coreServer4.MECWarningAlertApp[63184048] mp1Address "\"10.0.0.133\""
par singleMecHost.coreServer4.MECWarningAlertApp[63184048] mp1Port 10021
par singleMecHost.coreServer4.MECWarningAlertApp[63184048] requiredRam 1e+07B
attr unit B
par singleMecHost.coreServer4.MECWarningAlertApp[63184048] requiredDisk 1e+07B
attr unit B
par singleMecHost.coreServer4.MECWarningAlertApp[63184048] requiredCpu 1500
par singleMecHost.coreServer4.MECWarningAlertApp[63184048] timeToLive -1
par singleMecHost.coreServer4.MECWarningAlertApp[63184048] dscp -1
par singleMecHost.coreServer4.MECWarningAlertApp[63184048] tos -1
par singleMecHost.coreServer4.MECWarningAlertApp[63184048] logger false
par singleMecHost.coreServer4.MECWarningAlertApp[63184049] typename "\"simu5g.apps.mec.WarningAlert.MECWarningAlertApp\""
par singleMecHost.coreServer4.MECWarningAlertApp[63184049] packetSize 10
par singleMecHost.coreServer4.MECWarningAlertApp[63184049] interfaceTableModule "\"\""
par singleMecHost.coreServer4.MECWarningAlertApp[63184049] mecAppId 380
par singleMecHost.coreServer4.MECWarningAlertApp[63184049] localUePort 4002
par singleMecHost.coreServer4.MECWarningAlertApp[63184049] mp1Address "\"10.0.0.133\""
par singleMecHost.coreServer4.MECWarningAlertApp[63184049] mp1Port 10021
par singleMecHost.coreServer4.MECWarningAlertApp[63184049] requiredRam 1e+07B
attr unit B
par singleMecHost.coreServer4.MECWarningAlertApp[63184049] requiredDisk 1e+07B
attr unit B
par singleMecHost.coreServer4.MECWarningAlertApp[63184049] requiredCpu 1500
par singleMecHost.coreServer4.MECWarningAlertApp[63184049] timeToLive -1
par singleMecHost.coreServer4.MECWarningAlertApp[63184049] dscp -1
par singleMecHost.coreServer4.MECWarningAlertApp[63184049] tos -1
par singleMecHost.coreServer4.MECWarningAlertApp[63184049] logger false
par singleMecHost.coreServer4.MECWarningAlertApp[63184050] typename "\"simu5g.apps.mec.WarningAlert.MECWarningAlertApp\""
par singleMecHost.coreServer4.MECWarningAlertApp[63184050] packetSize 10
par singleMecHost.coreServer4.MECWarningAlertApp[63184050] interfaceTableModule "\"\""
par singleMecHost.coreServer4.MECWarningAlertApp[63184050] mecAppId 434
par singleMecHost.coreServer4.MECWarningAlertApp[63184050] localUePort 4003
par singleMecHost.coreServer4.MECWarningAlertApp[63184050] mp1Address "\"10.0.0.133\""
par singleMecHost.coreServer4.MECWarningAlertApp[63184050] mp1Port 10021
par singleMecHost.coreServer4.MECWarningAlertApp[63184050] requiredRam 1e+07B
attr unit B
par singleMecHost.coreServer4.MECWarningAlertApp[63184050] requiredDisk 1e+07B
attr unit B
par singleMecHost.coreServer4.MECWarningAlertApp[63184050] requiredCpu 1500
par singleMecHost.coreServer4.MECWarningAlertApp[63184050] timeToLive -1
par singleMecHost.coreServer4.MECWarningAlertApp[63184050] dscp -1
par singleMecHost.coreServer4.MECWarningAlertApp[63184050] tos -1
par singleMecHost.coreServer4.MECWarningAlertApp[63184050] logger false
par singleMecHost.coreServer4.MECWarningAlertApp[63184051] typename "\"simu5g.apps.mec.WarningAlert.MECWarningAlertApp\""
par singleMecHost.coreServer4.MECWarningAlertApp[63184051] packetSize 10
par singleMecHost.coreServer4.MECWarningAlertApp[63184051] interfaceTableModule "\"\""
par singleMecHost.coreServer4.MECWarningAlertApp[63184051] mecAppId 488
par singleMecHost.coreServer4.MECWarningAlertApp[63184051] localUePort 4004
par singleMecHost.coreServer4.MECWarningAlertApp[63184051] mp1Address "\"10.0.0.133\""
par singleMecHost.coreServer4.MECWarningAlertApp[63184051] mp1Port 10021
par singleMecHost.coreServer4.MECWarningAlertApp[63184051] requiredRam 1e+07B
attr unit B
par singleMecHost.coreServer4.MECWarningAlertApp[63184051] requiredDisk 1e+07B
attr unit B
par singleMecHost.coreServer4.MECWarningAlertApp[63184051] requiredCpu 1500
par singleMecHost.coreServer4.MECWarningAlertApp[63184051] timeToLive -1
par singleMecHost.coreServer4.MECWarningAlertApp[63184051] dscp -1
par singleMecHost.coreServer4.MECWarningAlertApp[63184051] tos -1
par singleMecHost.coreServer4.MECWarningAlertApp[63184051] logger false
par singleMecHost.coreServer4.MECWarningAlertApp[63184052] typename "\"simu5g.apps.mec.WarningAlert.MECWarningAlertApp\""
par singleMecHost.coreServer4.MECWarningAlertApp[63184052] packetSize 10
par singleMecHost.coreServer4.MECWarningAlertApp[63184052] interfaceTableModule "\"\""
par singleMecHost.coreServer4.MECWarningAlertApp[63184052] mecAppId 542
par singleMecHost.coreServer4.MECWarningAlertApp[63184052] localUePort 4005
par singleMecHost.coreServer4.MECWarningAlertApp[63184052] mp1Address "\"10.0.0.133\""
par singleMecHost.coreServer4.MECWarningAlertApp[63184052] mp1Port 10021
par singleMecHost.coreServer4.MECWarningAlertApp[63184052] requiredRam 1e+07B
attr unit B
par singleMecHost.coreServer4.MECWarningAlertApp[63184052] requiredDisk 1e+07B
attr unit B
par singleMecHost.coreServer4.MECWarningAlertApp[63184052] requiredCpu 1500
par singleMecHost.coreServer4.MECWarningAlertApp[63184052] timeToLive -1
par singleMecHost.coreServer4.MECWarningAlertApp[63184052] dscp -1
par singleMecHost.coreServer4.MECWarningAlertApp[63184052] tos -1
par singleMecHost.coreServer4.MECWarningAlertApp[63184052] logger false
par singleMecHost.coreServer4.MECWarningAlertApp[63184053] typename "\"simu5g.apps.mec.WarningAlert.MECWarningAlertApp\""
par singleMecHost.coreServer4.MECWarningAlertApp[63184053] packetSize 10
par singleMecHost.coreServer4.MECWarningAlertApp[63184053] interfaceTableModule "\"\""
par singleMecHost.coreServer4.MECWarningAlertApp[63184053] mecAppId 596
par singleMecHost.coreServer4.MECWarningAlertApp[63184053] localUePort 4006
par singleMecHost.coreServer4.MECWarningAlertApp[63184053] mp1Address "\"10.0.0.133\""
par singleMecHost.coreServer4.MECWarningAlertApp[63184053] mp1Port 10021
par singleMecHost.coreServer4.MECWarningAlertApp[63184053] requiredRam 1e+07B
attr unit B
par singleMecHost.coreServer4.MECWarningAlertApp[63184053] requiredDisk 1e+07B
attr unit B
par singleMecHost.coreServer4.MECWarningAlertApp[63184053] requiredCpu 1500
par singleMecHost.coreServer4.MECWarningAlertApp[63184053] timeToLive -1
par singleMecHost.coreServer4.MECWarningAlertApp[63184053] dscp -1
par singleMecHost.coreServer4.MECWarningAlertApp[63184053] tos -1
par singleMecHost.coreServer4.MECWarningAlertApp[63184053] logger false
par singleMecHost.coreServer4.MECWarningAlertApp[63184054] typename "\"simu5g.apps.mec.WarningAlert.MECWarningAlertApp\""
par singleMecHost.coreServer4.MECWarningAlertApp[63184054] packetSize 10
par singleMecHost.coreServer4.MECWarningAlertApp[63184054] interfaceTableModule "\"\""
par singleMecHost.coreServer4.MECWarningAlertApp[63184054] mecAppId 650
par singleMecHost.coreServer4.MECWarningAlertApp[63184054] localUePort 4007
par singleMecHost.coreServer4.MECWarningAlertApp[63184054] mp1Address "\"10.0.0.133\""
par singleMecHost.coreServer4.MECWarningAlertApp[63184054] mp1Port 10021
par singleMecHost.coreServer4.MECWarningAlertApp[63184054] requiredRam 1e+07B
attr unit B
par singleMecHost.coreServer4.MECWarningAlertApp[63184054] requiredDisk 1e+07B
attr unit B
par singleMecHost.coreServer4.MECWarningAlertApp[63184054] requiredCpu 1500
par singleMecHost.coreServer4.MECWarningAlertApp[63184054] timeToLive -1
par singleMecHost.coreServer4.MECWarningAlertApp[63184054] dscp -1
par singleMecHost.coreServer4.MECWarningAlertApp[63184054] tos -1
par singleMecHost.coreServer4.MECWarningAlertApp[63184054] logger false
par singleMecHost.coreServer4 typename "\"simu5g.nodes.mec.MECHost\""
par singleMecHost.coreServer4 nodeType "\"MECHost\""
par singleMecHost.coreServer4 gateway "\"upf\""
par singleMecHost.coreServer4 maxMECApps 30000
par singleMecHost.coreServer4 maxRam 1e+13B
attr unit B
par singleMecHost.coreServer4 maxDisk 1e+17B
attr unit B
par singleMecHost.coreServer4 maxCpuSpeed 460000
par singleMecHost.coreServer4 numBGMecApp 0
par singleMecHost.coreServer4 bsList "\"gnb1\""
par singleMecHost typename "\"multimechost.singleMecHost\""
par singleMecHost numUes 7
par singleMecHost playgroundSizeX 1100m
attr unit m
par singleMecHost playgroundSizeY 800m
attr unit m
par singleMecHost playgroundSizeZ 50m
attr unit m

