                                                                
version 3
run MultiMec-0-20250408-10:15:27-1444
attr configname MultiMec
attr datetime 20250408-10:15:27
attr datetimef 20250408-101527
attr experiment MultiMec
attr inifile omnetpp.ini
attr iterationvars "$u=0, $numRbs=50, $numUEs=3"
attr iterationvarsd u=0/numRbs=50/numUEs=3
attr iterationvarsf u=0,numRbs=50,numUEs=3-
attr measurement "$u=0, $numRbs=50, $numUEs=3"
attr network multimechost.singleMecHost
attr processid 1444
attr repetition 0
attr replication #0
attr resultdir results
attr runnumber 0
attr seedset 0
itervar numRbs 50
itervar numUEs 3
itervar u 0
config image-path ../../../../inet-4.4.1/images:../../../../simu5g-1.2.1/images
config sim-time-limit 40s
config network multimechost.singleMecHost
config *.carrierAggregation.numComponentCarriers 1
config *.carrierAggregation.componentCarrier[0].numerologyIndex 0
config *.carrierAggregation.componentCarrier[0].carrierFrequency 2GHz
config *.carrierAggregation.componentCarrier[0].numBands 50
config *.gnb1.cellularNic.numCarriers 1
config *.gnb1.cellularNic.channelModel[0].componentCarrierIndex 0
config *.ue[*].cellularNic.numCarriers 1
config *.ue[*].cellularNic.nrChannelModel[0].componentCarrierIndex 0
config *.numUe 3
config *.ue[*].macCellId 0
config *.ue[*].masterId 0
config *.ue[*].nrMacCellId 1
config *.ue[*].nrMasterId 1
config **.dynamicCellAssociation true
config **.enableHandover true
config **.mobility.constraintAreaMinZ 0m
config **.mobility.constraintAreaMaxZ 0m
config *.ue[*].mobility.initFromDisplayString false
config *.ue[*].mobility.typename LinearMobility
config *.ue[*].mobility.updateInterval 0.05s
config *.gNodeB1.mobility.initFromDisplayString true
config **.numUes 3
config **.ue[0].mobility.initialX 120m
config **.ue[0].mobility.initialY 50m
config **.ue[0].mobility.initialMovementHeading 90deg
config **.ue[0].mobility.speed 1mps
config **.ue[1].mobility.initialX 110m
config **.ue[1].mobility.initialY 90m
config **.ue[1].mobility.initialMovementHeading 90deg
config **.ue[1].mobility.speed 3mps
config **.ue[2].mobility.initialX 60m
config **.ue[2].mobility.initialY 130m
config **.ue[2].mobility.initialMovementHeading 90deg
config **.ue[2].mobility.speed 2mps
config **.mobility.verbose true
config *.ue[0].numApps 2
config *.ue[0].app[0].typename DeviceApp
config *.ue[0].app[0].localPort 4500
config *.ue[0].app[0].UALCMPAddress "\"ualcmp\""
config *.ue[0].app[0].UALCMPPort 1000
config *.ue[0].app[0].appPackageSource "\"ApplicationDescriptors/WarningAlertApp.json\""
config *.ue[0].app[1].typename UEWarningAlertApp
config *.ue[0].app[1].deviceAppAddress "\"ue[\"+string(ancestorIndex(1))+\"]\""
config *.ue[0].app[1].deviceAppPort 4500
config *.ue[0].app[1].startTime 1s
config *.ue[0].app[1].stopTime 35s
config *.ue[1].numApps 2
config *.ue[1].app[0].typename DeviceApp
config *.ue[1].app[0].localPort 4500
config *.ue[1].app[0].UALCMPAddress "\"ualcmp\""
config *.ue[1].app[0].UALCMPPort 1000
config *.ue[1].app[0].appPackageSource "\"ApplicationDescriptors/WarningAlertApp.json\""
config *.ue[1].app[1].typename UEWarningAlertApp
config *.ue[1].app[1].deviceAppAddress "\"ue[\"+string(ancestorIndex(1))+\"]\""
config *.ue[1].app[1].deviceAppPort 4500
config *.ue[1].app[1].startTime 1s
config *.ue[1].app[1].stopTime 35s
config *.ue[2].numApps 2
config *.ue[2].app[0].typename DeviceApp
config *.ue[2].app[0].localPort 4500
config *.ue[2].app[0].UALCMPAddress "\"ualcmp\""
config *.ue[2].app[0].UALCMPPort 1000
config *.ue[2].app[0].appPackageSource "\"ApplicationDescriptors/WarningAlertApp.json\""
config *.ue[2].app[1].typename UEWarningAlertApp
config *.ue[2].app[1].deviceAppAddress "\"ue[\"+string(ancestorIndex(1))+\"]\""
config *.ue[2].app[1].deviceAppPort 4500
config *.ue[2].app[1].startTime 1s
config *.ue[2].app[1].stopTime 35s
config **.hasRNISupport true
config **.tcp.typename Tcp
config **.tcp.advertisedWindow 65535
config **.tcp.tcpAlgorithmClass "\"TcpReno\""
config **.tcp.sackSupport true
config **.mecHost*.virtualisationInfrastructure.ipv4.forwarding true
config *.mecHost1.maxMECApps 100
config *.mecHost1.maxRam 150MB
config *.mecHost1.maxDisk 1000MB
config *.mecHost1.maxCpuSpeed 900
config *.mecHost2.maxMECApps 100
config *.mecHost2.maxRam 40MB
config *.mecHost2.maxDisk 1000MB
config *.mecHost2.maxCpuSpeed 160
config *.coreServer1.maxMECApps 200
config *.coreServer1.maxRam 50GB
config *.coreServer1.maxDisk 500TB
config *.coreServer1.maxCpuSpeed 4000
config *.coreServer2.maxMECApps 300
config *.coreServer2.maxRam 100GB
config *.coreServer2.maxDisk 1000000GB
config *.coreServer2.maxCpuSpeed 4600
config *.coreServer3.maxMECApps 3000
config *.coreServer3.maxRam 1000GB
config *.coreServer3.maxDisk 10000000GB
config *.coreServer3.maxCpuSpeed 46000
config *.coreServer4.maxMECApps 30000
config *.coreServer4.maxRam 10000GB
config *.coreServer4.maxDisk 100000000GB
config *.coreServer4.maxCpuSpeed 460000
config *.mecHost*.bsList "\"gnb1\""
config *.coreServer*.bsList "\"gnb1\""
config *.upf.typename UPF
config *.upf.forwarding true
config *.upf.qosEnabled true
config *.upf.highLatencyThreshold 50ms
config *.upf.routeTable "xmldoc(\"routes.xml\")"
config *.mecHost1.mecPlatform.numMecServices 1
config *.mecHost1.mecPlatform.mecService[0].typename LocationService
config *.mecHost1.mecPlatform.mecService[0].localAddress "\"mecHost1.virtualisationInfrastructure\""
config *.mecHost1.mecPlatform.mecService[0].localPort 10020
config *.mecHost1.mecPlatform.serviceRegistry.localAddress "\"mecHost1.virtualisationInfrastructure\""
config *.mecHost1.mecPlatform.serviceRegistry.localPort 10021
config *.mecHost2.mecPlatform.numMecServices 1
config *.mecHost2.mecPlatform.mecService[0].typename LocationService
config *.mecHost2.mecPlatform.mecService[0].localAddress "\"mecHost2.virtualisationInfrastructure\""
config *.mecHost2.mecPlatform.mecService[0].localPort 10022
config *.mecHost2.mecPlatform.serviceRegistry.localAddress "\"mecHost2.virtualisationInfrastructure\""
config *.mecHost2.mecPlatform.serviceRegistry.localPort 10023
config *.mecHost1.mecPlatform.serviceRegistry.rng-0 0
config *.mecHost1.mecPlatform.serviceRegistry.rng-1 1
config *.mecHost1.mecPlatform.mecService[0].rng-0 0
config *.mecHost1.mecPlatform.mecService[0].rng-1 1
config *.mecHost1.mecPlatform.mecService[0].requestServiceTime 20us
config *.mecHost1.mecPlatform.mecService[0].subscriptionServiceTime 11us
config *.mecHost2.mecPlatform.serviceRegistry.rng-0 0
config *.mecHost2.mecPlatform.serviceRegistry.rng-1 1
config *.mecHost2.mecPlatform.mecService[0].rng-0 0
config *.mecHost2.mecPlatform.mecService[0].rng-1 1
config *.mecHost2.mecPlatform.mecService[0].requestServiceTime 20us
config *.mecHost2.mecPlatform.mecService[0].subscriptionServiceTime 11us
config *.mecOrchestrator.mecHostList "\"mecHost1, mecHost2, coreServer1, coreServer2, coreServer3, coreServer4 \""
config *.mecOrchestrator.mecApplicationPackageList "\"WarningAlertApp\""
config *.mecHost*.mecPlatformManager.mecOrchestrator "\"mecOrchestrator\""
config *.coreServer*.mecPlatformManager.mecOrchestrator "\"mecOrchestrator\""
config *.mecOrchestrator.loadBalancingAlgorithm "\"random\""
config output-scalar-file-append false
config **.routingRecorder.enabled false
config output-scalar-file "results/MultiMec/$u=0, $numRbs=50, $numUEs=3-0.sca"
config output-vector-file "results/MultiMec/$u=0, $numRbs=50, $numUEs=3-0.vec"
config seed-set 0
config num-rngs 3
config **.sctp.**.scalar-recording false
config **.sctp.**.vector-recording false
config **.vector-recording true
config **.mecHost*.**.vector-recording true
config **.coreServer*.**.vector-recording true
config **.interfaceTable.recordStats true
config **.linkVisualizer.displayLinks true
config **.linkVisualizer.recordLinks true
config **.queue.recordStatistics true
config **.queue.recordDroppedPackets true
config *.playgroundSizeX 1100m
config *.playgroundSizeY 800m
config *.playgroundSizeZ 50m
config **.sctp.nagleEnabled false
config **.sctp.enableHeartbeats false
config **.downlink_interference true
config **.uplink_interference true
config **.ueTxPower 26
config **.eNodeBTxPower 46
config **.targetBler 0.01
config **.blerShift 5
config **.fbPeriod 40
config **.configurator.assignAddresses true
config **.configurator.addDefaultRoutes true
config **.configurator.addStaticRoutes true

vector 0 singleMecHost.upf.ppp[0].queue queueLength:vector ETV
attr autoWarmupFilter false
attr interpolationmode sample-hold
attr recordingmode vector
attr source "warmup(atomic(constant0(packetPushEnded) + count(packetPushStarted) - count(packetPulled) - count(packetRemoved) - count(packetDropped)))"
attr title "queue length"
attr unit pk
vector 1 singleMecHost.upf.ppp[0].queue queueBitLength:vector ETV
attr autoWarmupFilter false
attr interpolationmode sample-hold
attr recordingmode vector
attr source "warmup(atomic(constant0(packetPushEnded) + sum(packetLength(packetPushStarted)) - sum(packetLength(packetPulled)) - sum(packetLength(packetRemoved)) - sum(packetLength(packetDropped))))"
attr title "queue bit length"
attr unit b
vector 2 singleMecHost.upf.ppp[0].ppp transmissionState:vector ETV
attr interpolationmode sample-hold
attr recordingmode vector
attr source transmissionStateChanged
attr title "tx state"
vector 3 singleMecHost.upf.ppp[1].queue queueLength:vector ETV
attr autoWarmupFilter false
attr interpolationmode sample-hold
attr recordingmode vector
attr source "warmup(atomic(constant0(packetPushEnded) + count(packetPushStarted) - count(packetPulled) - count(packetRemoved) - count(packetDropped)))"
attr title "queue length"
attr unit pk
vector 4 singleMecHost.upf.ppp[1].queue queueBitLength:vector ETV
attr autoWarmupFilter false
attr interpolationmode sample-hold
attr recordingmode vector
attr source "warmup(atomic(constant0(packetPushEnded) + sum(packetLength(packetPushStarted)) - sum(packetLength(packetPulled)) - sum(packetLength(packetRemoved)) - sum(packetLength(packetDropped))))"
attr title "queue bit length"
attr unit b
vector 5 singleMecHost.upf.ppp[1].ppp transmissionState:vector ETV
attr interpolationmode sample-hold
attr recordingmode vector
attr source transmissionStateChanged
attr title "tx state"
vector 6 singleMecHost.upf.ppp[2].queue queueLength:vector ETV
attr autoWarmupFilter false
attr interpolationmode sample-hold
attr recordingmode vector
attr source "warmup(atomic(constant0(packetPushEnded) + count(packetPushStarted) - count(packetPulled) - count(packetRemoved) - count(packetDropped)))"
attr title "queue length"
attr unit pk
vector 7 singleMecHost.upf.ppp[2].queue queueBitLength:vector ETV
attr autoWarmupFilter false
attr interpolationmode sample-hold
attr recordingmode vector
attr source "warmup(atomic(constant0(packetPushEnded) + sum(packetLength(packetPushStarted)) - sum(packetLength(packetPulled)) - sum(packetLength(packetRemoved)) - sum(packetLength(packetDropped))))"
attr title "queue bit length"
attr unit b
vector 8 singleMecHost.upf.ppp[2].ppp transmissionState:vector ETV
attr interpolationmode sample-hold
attr recordingmode vector
attr source transmissionStateChanged
attr title "tx state"
vector 9 singleMecHost.upf.ppp[3].queue queueLength:vector ETV
attr autoWarmupFilter false
attr interpolationmode sample-hold
attr recordingmode vector
attr source "warmup(atomic(constant0(packetPushEnded) + count(packetPushStarted) - count(packetPulled) - count(packetRemoved) - count(packetDropped)))"
attr title "queue length"
attr unit pk
vector 10 singleMecHost.upf.ppp[3].queue queueBitLength:vector ETV
attr autoWarmupFilter false
attr interpolationmode sample-hold
attr recordingmode vector
attr source "warmup(atomic(constant0(packetPushEnded) + sum(packetLength(packetPushStarted)) - sum(packetLength(packetPulled)) - sum(packetLength(packetRemoved)) - sum(packetLength(packetDropped))))"
attr title "queue bit length"
attr unit b
vector 11 singleMecHost.upf.ppp[3].ppp transmissionState:vector ETV
attr interpolationmode sample-hold
attr recordingmode vector
attr source transmissionStateChanged
attr title "tx state"
vector 12 singleMecHost.upf.ppp[4].queue queueLength:vector ETV
attr autoWarmupFilter false
attr interpolationmode sample-hold
attr recordingmode vector
attr source "warmup(atomic(constant0(packetPushEnded) + count(packetPushStarted) - count(packetPulled) - count(packetRemoved) - count(packetDropped)))"
attr title "queue length"
attr unit pk
vector 13 singleMecHost.upf.ppp[4].queue queueBitLength:vector ETV
attr autoWarmupFilter false
attr interpolationmode sample-hold
attr recordingmode vector
attr source "warmup(atomic(constant0(packetPushEnded) + sum(packetLength(packetPushStarted)) - sum(packetLength(packetPulled)) - sum(packetLength(packetRemoved)) - sum(packetLength(packetDropped))))"
attr title "queue bit length"
attr unit b
vector 14 singleMecHost.upf.ppp[4].ppp transmissionState:vector ETV
attr interpolationmode sample-hold
attr recordingmode vector
attr source transmissionStateChanged
attr title "tx state"
vector 15 singleMecHost.upf.pppIf.queue queueLength:vector ETV
attr autoWarmupFilter false
attr interpolationmode sample-hold
attr recordingmode vector
attr source "warmup(atomic(constant0(packetPushEnded) + count(packetPushStarted) - count(packetPulled) - count(packetRemoved) - count(packetDropped)))"
attr title "queue length"
attr unit pk
vector 16 singleMecHost.upf.pppIf.queue queueBitLength:vector ETV
attr autoWarmupFilter false
attr interpolationmode sample-hold
attr recordingmode vector
attr source "warmup(atomic(constant0(packetPushEnded) + sum(packetLength(packetPushStarted)) - sum(packetLength(packetPulled)) - sum(packetLength(packetRemoved)) - sum(packetLength(packetDropped))))"
attr title "queue bit length"
attr unit b
vector 17 singleMecHost.upf.pppIf.ppp transmissionState:vector ETV
attr interpolationmode sample-hold
attr recordingmode vector
attr source transmissionStateChanged
attr title "tx state"
vector 18 singleMecHost.upf.udp passedUpPk:vector(count) ETV
attr interpolationmode none
attr recordingmode vector(count)
attr source packetSentToUpper
attr title "packets passed up, count"
vector 19 singleMecHost.upf.udp droppedPkWrongPort:vector(count) ETV
attr interpolationmode none
attr recordingmode vector(count)
attr source packetDropReasonIsNoPortFound(packetDropped)
attr title "packets dropped (wrong port), count"
vector 20 singleMecHost.upf.udp droppedPkBadChecksum:vector(count) ETV
attr interpolationmode none
attr recordingmode vector(count)
attr source packetDropReasonIsIncorrectlyReceived(packetDropped)
attr title "packets dropped (checksum error), count"
vector 21 singleMecHost.iUpf.ppp[0].queue queueLength:vector ETV
attr autoWarmupFilter false
attr interpolationmode sample-hold
attr recordingmode vector
attr source "warmup(atomic(constant0(packetPushEnded) + count(packetPushStarted) - count(packetPulled) - count(packetRemoved) - count(packetDropped)))"
attr title "queue length"
attr unit pk
vector 22 singleMecHost.iUpf.ppp[0].queue queueBitLength:vector ETV
attr autoWarmupFilter false
attr interpolationmode sample-hold
attr recordingmode vector
attr source "warmup(atomic(constant0(packetPushEnded) + sum(packetLength(packetPushStarted)) - sum(packetLength(packetPulled)) - sum(packetLength(packetRemoved)) - sum(packetLength(packetDropped))))"
attr title "queue bit length"
attr unit b
vector 23 singleMecHost.iUpf.ppp[0].ppp transmissionState:vector ETV
attr interpolationmode sample-hold
attr recordingmode vector
attr source transmissionStateChanged
attr title "tx state"
vector 24 singleMecHost.iUpf.ppp[1].queue queueLength:vector ETV
attr autoWarmupFilter false
attr interpolationmode sample-hold
attr recordingmode vector
attr source "warmup(atomic(constant0(packetPushEnded) + count(packetPushStarted) - count(packetPulled) - count(packetRemoved) - count(packetDropped)))"
attr title "queue length"
attr unit pk
vector 25 singleMecHost.iUpf.ppp[1].queue queueBitLength:vector ETV
attr autoWarmupFilter false
attr interpolationmode sample-hold
attr recordingmode vector
attr source "warmup(atomic(constant0(packetPushEnded) + sum(packetLength(packetPushStarted)) - sum(packetLength(packetPulled)) - sum(packetLength(packetRemoved)) - sum(packetLength(packetDropped))))"
attr title "queue bit length"
attr unit b
vector 26 singleMecHost.iUpf.ppp[1].ppp transmissionState:vector ETV
attr interpolationmode sample-hold
attr recordingmode vector
attr source transmissionStateChanged
attr title "tx state"
vector 27 singleMecHost.iUpf.ppp[2].queue queueLength:vector ETV
attr autoWarmupFilter false
attr interpolationmode sample-hold
attr recordingmode vector
attr source "warmup(atomic(constant0(packetPushEnded) + count(packetPushStarted) - count(packetPulled) - count(packetRemoved) - count(packetDropped)))"
attr title "queue length"
attr unit pk
vector 28 singleMecHost.iUpf.ppp[2].queue queueBitLength:vector ETV
attr autoWarmupFilter false
attr interpolationmode sample-hold
attr recordingmode vector
attr source "warmup(atomic(constant0(packetPushEnded) + sum(packetLength(packetPushStarted)) - sum(packetLength(packetPulled)) - sum(packetLength(packetRemoved)) - sum(packetLength(packetDropped))))"
attr title "queue bit length"
attr unit b
vector 29 singleMecHost.iUpf.ppp[2].ppp transmissionState:vector ETV
attr interpolationmode sample-hold
attr recordingmode vector
attr source transmissionStateChanged
attr title "tx state"
vector 30 singleMecHost.iUpf.ppp[3].queue queueLength:vector ETV
attr autoWarmupFilter false
attr interpolationmode sample-hold
attr recordingmode vector
attr source "warmup(atomic(constant0(packetPushEnded) + count(packetPushStarted) - count(packetPulled) - count(packetRemoved) - count(packetDropped)))"
attr title "queue length"
attr unit pk
vector 31 singleMecHost.iUpf.ppp[3].queue queueBitLength:vector ETV
attr autoWarmupFilter false
attr interpolationmode sample-hold
attr recordingmode vector
attr source "warmup(atomic(constant0(packetPushEnded) + sum(packetLength(packetPushStarted)) - sum(packetLength(packetPulled)) - sum(packetLength(packetRemoved)) - sum(packetLength(packetDropped))))"
attr title "queue bit length"
attr unit b
vector 32 singleMecHost.iUpf.ppp[3].ppp transmissionState:vector ETV
attr interpolationmode sample-hold
attr recordingmode vector
attr source transmissionStateChanged
attr title "tx state"
vector 33 singleMecHost.iUpf.pppIf.queue queueLength:vector ETV
attr autoWarmupFilter false
attr interpolationmode sample-hold
attr recordingmode vector
attr source "warmup(atomic(constant0(packetPushEnded) + count(packetPushStarted) - count(packetPulled) - count(packetRemoved) - count(packetDropped)))"
attr title "queue length"
attr unit pk
vector 34 singleMecHost.iUpf.pppIf.queue queueBitLength:vector ETV
attr autoWarmupFilter false
attr interpolationmode sample-hold
attr recordingmode vector
attr source "warmup(atomic(constant0(packetPushEnded) + sum(packetLength(packetPushStarted)) - sum(packetLength(packetPulled)) - sum(packetLength(packetRemoved)) - sum(packetLength(packetDropped))))"
attr title "queue bit length"
attr unit b
vector 35 singleMecHost.iUpf.pppIf.ppp transmissionState:vector ETV
attr interpolationmode sample-hold
attr recordingmode vector
attr source transmissionStateChanged
attr title "tx state"
vector 36 singleMecHost.iUpf.udp passedUpPk:vector(count) ETV
attr interpolationmode none
attr recordingmode vector(count)
attr source packetSentToUpper
attr title "packets passed up, count"
vector 37 singleMecHost.iUpf.udp droppedPkWrongPort:vector(count) ETV
attr interpolationmode none
attr recordingmode vector(count)
attr source packetDropReasonIsNoPortFound(packetDropped)
attr title "packets dropped (wrong port), count"
vector 38 singleMecHost.iUpf.udp droppedPkBadChecksum:vector(count) ETV
attr interpolationmode none
attr recordingmode vector(count)
attr source packetDropReasonIsIncorrectlyReceived(packetDropped)
attr title "packets dropped (checksum error), count"
vector 39 singleMecHost.gnb1.pppIf.queue queueLength:vector ETV
attr autoWarmupFilter false
attr interpolationmode sample-hold
attr recordingmode vector
attr source "warmup(atomic(constant0(packetPushEnded) + count(packetPushStarted) - count(packetPulled) - count(packetRemoved) - count(packetDropped)))"
attr title "queue length"
attr unit pk
vector 40 singleMecHost.gnb1.pppIf.queue queueBitLength:vector ETV
attr autoWarmupFilter false
attr interpolationmode sample-hold
attr recordingmode vector
attr source "warmup(atomic(constant0(packetPushEnded) + sum(packetLength(packetPushStarted)) - sum(packetLength(packetPulled)) - sum(packetLength(packetRemoved)) - sum(packetLength(packetDropped))))"
attr title "queue bit length"
attr unit b
vector 41 singleMecHost.gnb1.pppIf.ppp transmissionState:vector ETV
attr interpolationmode sample-hold
attr recordingmode vector
attr source transmissionStateChanged
attr title "tx state"
vector 42 singleMecHost.gnb1.pppMEHostIf.queue queueLength:vector ETV
attr autoWarmupFilter false
attr interpolationmode sample-hold
attr recordingmode vector
attr source "warmup(atomic(constant0(packetPushEnded) + count(packetPushStarted) - count(packetPulled) - count(packetRemoved) - count(packetDropped)))"
attr title "queue length"
attr unit pk
vector 43 singleMecHost.gnb1.pppMEHostIf.queue queueBitLength:vector ETV
attr autoWarmupFilter false
attr interpolationmode sample-hold
attr recordingmode vector
attr source "warmup(atomic(constant0(packetPushEnded) + sum(packetLength(packetPushStarted)) - sum(packetLength(packetPulled)) - sum(packetLength(packetRemoved)) - sum(packetLength(packetDropped))))"
attr title "queue bit length"
attr unit b
vector 44 singleMecHost.gnb1.pppMEHostIf.ppp transmissionState:vector ETV
attr interpolationmode sample-hold
attr recordingmode vector
attr source transmissionStateChanged
attr title "tx state"
vector 45 singleMecHost.gnb1.udp passedUpPk:vector(count) ETV
attr interpolationmode none
attr recordingmode vector(count)
attr source packetSentToUpper
attr title "packets passed up, count"
vector 46 singleMecHost.gnb1.udp droppedPkWrongPort:vector(count) ETV
attr interpolationmode none
attr recordingmode vector(count)
attr source packetDropReasonIsNoPortFound(packetDropped)
attr title "packets dropped (wrong port), count"
vector 47 singleMecHost.gnb1.udp droppedPkBadChecksum:vector(count) ETV
attr interpolationmode none
attr recordingmode vector(count)
attr source packetDropReasonIsIncorrectlyReceived(packetDropped)
attr title "packets dropped (checksum error), count"
vector 48 singleMecHost.ue[0].udp passedUpPk:vector(count) ETV
attr interpolationmode none
attr recordingmode vector(count)
attr source packetSentToUpper
attr title "packets passed up, count"
vector 49 singleMecHost.ue[0].udp droppedPkWrongPort:vector(count) ETV
attr interpolationmode none
attr recordingmode vector(count)
attr source packetDropReasonIsNoPortFound(packetDropped)
attr title "packets dropped (wrong port), count"
vector 50 singleMecHost.ue[0].udp droppedPkBadChecksum:vector(count) ETV
attr interpolationmode none
attr recordingmode vector(count)
attr source packetDropReasonIsIncorrectlyReceived(packetDropped)
attr title "packets dropped (checksum error), count"
vector 51 singleMecHost.ue[1].udp passedUpPk:vector(count) ETV
attr interpolationmode none
attr recordingmode vector(count)
attr source packetSentToUpper
attr title "packets passed up, count"
vector 52 singleMecHost.ue[1].udp droppedPkWrongPort:vector(count) ETV
attr interpolationmode none
attr recordingmode vector(count)
attr source packetDropReasonIsNoPortFound(packetDropped)
attr title "packets dropped (wrong port), count"
vector 53 singleMecHost.ue[1].udp droppedPkBadChecksum:vector(count) ETV
attr interpolationmode none
attr recordingmode vector(count)
attr source packetDropReasonIsIncorrectlyReceived(packetDropped)
attr title "packets dropped (checksum error), count"
vector 54 singleMecHost.ue[2].udp passedUpPk:vector(count) ETV
attr interpolationmode none
attr recordingmode vector(count)
attr source packetSentToUpper
attr title "packets passed up, count"
vector 55 singleMecHost.ue[2].udp droppedPkWrongPort:vector(count) ETV
attr interpolationmode none
attr recordingmode vector(count)
attr source packetDropReasonIsNoPortFound(packetDropped)
attr title "packets dropped (wrong port), count"
vector 56 singleMecHost.ue[2].udp droppedPkBadChecksum:vector(count) ETV
attr interpolationmode none
attr recordingmode vector(count)
attr source packetDropReasonIsIncorrectlyReceived(packetDropped)
attr title "packets dropped (checksum error), count"
vector 57 singleMecHost.mecHost1.virtualisationInfrastructure.pppIf[0].queue queueLength:vector ETV
attr autoWarmupFilter false
attr interpolationmode sample-hold
attr recordingmode vector
attr source "warmup(atomic(constant0(packetPushEnded) + count(packetPushStarted) - count(packetPulled) - count(packetRemoved) - count(packetDropped)))"
attr title "queue length"
attr unit pk
vector 58 singleMecHost.mecHost1.virtualisationInfrastructure.pppIf[0].queue queueBitLength:vector ETV
attr autoWarmupFilter false
attr interpolationmode sample-hold
attr recordingmode vector
attr source "warmup(atomic(constant0(packetPushEnded) + sum(packetLength(packetPushStarted)) - sum(packetLength(packetPulled)) - sum(packetLength(packetRemoved)) - sum(packetLength(packetDropped))))"
attr title "queue bit length"
attr unit b
vector 59 singleMecHost.mecHost1.virtualisationInfrastructure.pppIf[0].ppp transmissionState:vector ETV
attr interpolationmode sample-hold
attr recordingmode vector
attr source transmissionStateChanged
attr title "tx state"
vector 60 singleMecHost.mecHost1.virtualisationInfrastructure.udp passedUpPk:vector(count) ETV
attr interpolationmode none
attr recordingmode vector(count)
attr source packetSentToUpper
attr title "packets passed up, count"
vector 61 singleMecHost.mecHost1.virtualisationInfrastructure.udp droppedPkWrongPort:vector(count) ETV
attr interpolationmode none
attr recordingmode vector(count)
attr source packetDropReasonIsNoPortFound(packetDropped)
attr title "packets dropped (wrong port), count"
vector 62 singleMecHost.mecHost1.virtualisationInfrastructure.udp droppedPkBadChecksum:vector(count) ETV
attr interpolationmode none
attr recordingmode vector(count)
attr source packetDropReasonIsIncorrectlyReceived(packetDropped)
attr title "packets dropped (checksum error), count"
vector 63 singleMecHost.mecHost1.upf_mec.ppp[0].queue queueLength:vector ETV
attr autoWarmupFilter false
attr interpolationmode sample-hold
attr recordingmode vector
attr source "warmup(atomic(constant0(packetPushEnded) + count(packetPushStarted) - count(packetPulled) - count(packetRemoved) - count(packetDropped)))"
attr title "queue length"
attr unit pk
vector 64 singleMecHost.mecHost1.upf_mec.ppp[0].queue queueBitLength:vector ETV
attr autoWarmupFilter false
attr interpolationmode sample-hold
attr recordingmode vector
attr source "warmup(atomic(constant0(packetPushEnded) + sum(packetLength(packetPushStarted)) - sum(packetLength(packetPulled)) - sum(packetLength(packetRemoved)) - sum(packetLength(packetDropped))))"
attr title "queue bit length"
attr unit b
vector 65 singleMecHost.mecHost1.upf_mec.ppp[0].ppp transmissionState:vector ETV
attr interpolationmode sample-hold
attr recordingmode vector
attr source transmissionStateChanged
attr title "tx state"
vector 66 singleMecHost.mecHost1.upf_mec.pppIf.queue queueLength:vector ETV
attr autoWarmupFilter false
attr interpolationmode sample-hold
attr recordingmode vector
attr source "warmup(atomic(constant0(packetPushEnded) + count(packetPushStarted) - count(packetPulled) - count(packetRemoved) - count(packetDropped)))"
attr title "queue length"
attr unit pk
vector 67 singleMecHost.mecHost1.upf_mec.pppIf.queue queueBitLength:vector ETV
attr autoWarmupFilter false
attr interpolationmode sample-hold
attr recordingmode vector
attr source "warmup(atomic(constant0(packetPushEnded) + sum(packetLength(packetPushStarted)) - sum(packetLength(packetPulled)) - sum(packetLength(packetRemoved)) - sum(packetLength(packetDropped))))"
attr title "queue bit length"
attr unit b
vector 68 singleMecHost.mecHost1.upf_mec.pppIf.ppp transmissionState:vector ETV
attr interpolationmode sample-hold
attr recordingmode vector
attr source transmissionStateChanged
attr title "tx state"
vector 69 singleMecHost.mecHost1.upf_mec.udp passedUpPk:vector(count) ETV
attr interpolationmode none
attr recordingmode vector(count)
attr source packetSentToUpper
attr title "packets passed up, count"
vector 70 singleMecHost.mecHost1.upf_mec.udp droppedPkWrongPort:vector(count) ETV
attr interpolationmode none
attr recordingmode vector(count)
attr source packetDropReasonIsNoPortFound(packetDropped)
attr title "packets dropped (wrong port), count"
vector 71 singleMecHost.mecHost1.upf_mec.udp droppedPkBadChecksum:vector(count) ETV
attr interpolationmode none
attr recordingmode vector(count)
attr source packetDropReasonIsIncorrectlyReceived(packetDropped)
attr title "packets dropped (checksum error), count"
vector 72 singleMecHost.router1.ppp[0].queue queueLength:vector ETV
attr autoWarmupFilter false
attr interpolationmode sample-hold
attr recordingmode vector
attr source "warmup(atomic(constant0(packetPushEnded) + count(packetPushStarted) - count(packetPulled) - count(packetRemoved) - count(packetDropped)))"
attr title "queue length"
attr unit pk
vector 73 singleMecHost.router1.ppp[0].queue queueBitLength:vector ETV
attr autoWarmupFilter false
attr interpolationmode sample-hold
attr recordingmode vector
attr source "warmup(atomic(constant0(packetPushEnded) + sum(packetLength(packetPushStarted)) - sum(packetLength(packetPulled)) - sum(packetLength(packetRemoved)) - sum(packetLength(packetDropped))))"
attr title "queue bit length"
attr unit b
vector 74 singleMecHost.router1.ppp[0].ppp transmissionState:vector ETV
attr interpolationmode sample-hold
attr recordingmode vector
attr source transmissionStateChanged
attr title "tx state"
vector 75 singleMecHost.router1.ppp[1].queue queueLength:vector ETV
attr autoWarmupFilter false
attr interpolationmode sample-hold
attr recordingmode vector
attr source "warmup(atomic(constant0(packetPushEnded) + count(packetPushStarted) - count(packetPulled) - count(packetRemoved) - count(packetDropped)))"
attr title "queue length"
attr unit pk
vector 76 singleMecHost.router1.ppp[1].queue queueBitLength:vector ETV
attr autoWarmupFilter false
attr interpolationmode sample-hold
attr recordingmode vector
attr source "warmup(atomic(constant0(packetPushEnded) + sum(packetLength(packetPushStarted)) - sum(packetLength(packetPulled)) - sum(packetLength(packetRemoved)) - sum(packetLength(packetDropped))))"
attr title "queue bit length"
attr unit b
vector 77 singleMecHost.router1.ppp[1].ppp transmissionState:vector ETV
attr interpolationmode sample-hold
attr recordingmode vector
attr source transmissionStateChanged
attr title "tx state"
vector 78 singleMecHost.router1.ppp[2].queue queueLength:vector ETV
attr autoWarmupFilter false
attr interpolationmode sample-hold
attr recordingmode vector
attr source "warmup(atomic(constant0(packetPushEnded) + count(packetPushStarted) - count(packetPulled) - count(packetRemoved) - count(packetDropped)))"
attr title "queue length"
attr unit pk
vector 79 singleMecHost.router1.ppp[2].queue queueBitLength:vector ETV
attr autoWarmupFilter false
attr interpolationmode sample-hold
attr recordingmode vector
attr source "warmup(atomic(constant0(packetPushEnded) + sum(packetLength(packetPushStarted)) - sum(packetLength(packetPulled)) - sum(packetLength(packetRemoved)) - sum(packetLength(packetDropped))))"
attr title "queue bit length"
attr unit b
vector 80 singleMecHost.router1.ppp[2].ppp transmissionState:vector ETV
attr interpolationmode sample-hold
attr recordingmode vector
attr source transmissionStateChanged
attr title "tx state"
vector 81 singleMecHost.router2.ppp[0].queue queueLength:vector ETV
attr autoWarmupFilter false
attr interpolationmode sample-hold
attr recordingmode vector
attr source "warmup(atomic(constant0(packetPushEnded) + count(packetPushStarted) - count(packetPulled) - count(packetRemoved) - count(packetDropped)))"
attr title "queue length"
attr unit pk
vector 82 singleMecHost.router2.ppp[0].queue queueBitLength:vector ETV
attr autoWarmupFilter false
attr interpolationmode sample-hold
attr recordingmode vector
attr source "warmup(atomic(constant0(packetPushEnded) + sum(packetLength(packetPushStarted)) - sum(packetLength(packetPulled)) - sum(packetLength(packetRemoved)) - sum(packetLength(packetDropped))))"
attr title "queue bit length"
attr unit b
vector 83 singleMecHost.router2.ppp[0].ppp transmissionState:vector ETV
attr interpolationmode sample-hold
attr recordingmode vector
attr source transmissionStateChanged
attr title "tx state"
vector 84 singleMecHost.router2.ppp[1].queue queueLength:vector ETV
attr autoWarmupFilter false
attr interpolationmode sample-hold
attr recordingmode vector
attr source "warmup(atomic(constant0(packetPushEnded) + count(packetPushStarted) - count(packetPulled) - count(packetRemoved) - count(packetDropped)))"
attr title "queue length"
attr unit pk
vector 85 singleMecHost.router2.ppp[1].queue queueBitLength:vector ETV
attr autoWarmupFilter false
attr interpolationmode sample-hold
attr recordingmode vector
attr source "warmup(atomic(constant0(packetPushEnded) + sum(packetLength(packetPushStarted)) - sum(packetLength(packetPulled)) - sum(packetLength(packetRemoved)) - sum(packetLength(packetDropped))))"
attr title "queue bit length"
attr unit b
vector 86 singleMecHost.router2.ppp[1].ppp transmissionState:vector ETV
attr interpolationmode sample-hold
attr recordingmode vector
attr source transmissionStateChanged
attr title "tx state"
vector 87 singleMecHost.router2.ppp[2].queue queueLength:vector ETV
attr autoWarmupFilter false
attr interpolationmode sample-hold
attr recordingmode vector
attr source "warmup(atomic(constant0(packetPushEnded) + count(packetPushStarted) - count(packetPulled) - count(packetRemoved) - count(packetDropped)))"
attr title "queue length"
attr unit pk
vector 88 singleMecHost.router2.ppp[2].queue queueBitLength:vector ETV
attr autoWarmupFilter false
attr interpolationmode sample-hold
attr recordingmode vector
attr source "warmup(atomic(constant0(packetPushEnded) + sum(packetLength(packetPushStarted)) - sum(packetLength(packetPulled)) - sum(packetLength(packetRemoved)) - sum(packetLength(packetDropped))))"
attr title "queue bit length"
attr unit b
vector 89 singleMecHost.router2.ppp[2].ppp transmissionState:vector ETV
attr interpolationmode sample-hold
attr recordingmode vector
attr source transmissionStateChanged
attr title "tx state"
vector 90 singleMecHost.router3.ppp[0].queue queueLength:vector ETV
attr autoWarmupFilter false
attr interpolationmode sample-hold
attr recordingmode vector
attr source "warmup(atomic(constant0(packetPushEnded) + count(packetPushStarted) - count(packetPulled) - count(packetRemoved) - count(packetDropped)))"
attr title "queue length"
attr unit pk
vector 91 singleMecHost.router3.ppp[0].queue queueBitLength:vector ETV
attr autoWarmupFilter false
attr interpolationmode sample-hold
attr recordingmode vector
attr source "warmup(atomic(constant0(packetPushEnded) + sum(packetLength(packetPushStarted)) - sum(packetLength(packetPulled)) - sum(packetLength(packetRemoved)) - sum(packetLength(packetDropped))))"
attr title "queue bit length"
attr unit b
vector 92 singleMecHost.router3.ppp[0].ppp transmissionState:vector ETV
attr interpolationmode sample-hold
attr recordingmode vector
attr source transmissionStateChanged
attr title "tx state"
vector 93 singleMecHost.router3.ppp[1].queue queueLength:vector ETV
attr autoWarmupFilter false
attr interpolationmode sample-hold
attr recordingmode vector
attr source "warmup(atomic(constant0(packetPushEnded) + count(packetPushStarted) - count(packetPulled) - count(packetRemoved) - count(packetDropped)))"
attr title "queue length"
attr unit pk
vector 94 singleMecHost.router3.ppp[1].queue queueBitLength:vector ETV
attr autoWarmupFilter false
attr interpolationmode sample-hold
attr recordingmode vector
attr source "warmup(atomic(constant0(packetPushEnded) + sum(packetLength(packetPushStarted)) - sum(packetLength(packetPulled)) - sum(packetLength(packetRemoved)) - sum(packetLength(packetDropped))))"
attr title "queue bit length"
attr unit b
vector 95 singleMecHost.router3.ppp[1].ppp transmissionState:vector ETV
attr interpolationmode sample-hold
attr recordingmode vector
attr source transmissionStateChanged
attr title "tx state"
vector 96 singleMecHost.router3.ppp[2].queue queueLength:vector ETV
attr autoWarmupFilter false
attr interpolationmode sample-hold
attr recordingmode vector
attr source "warmup(atomic(constant0(packetPushEnded) + count(packetPushStarted) - count(packetPulled) - count(packetRemoved) - count(packetDropped)))"
attr title "queue length"
attr unit pk
vector 97 singleMecHost.router3.ppp[2].queue queueBitLength:vector ETV
attr autoWarmupFilter false
attr interpolationmode sample-hold
attr recordingmode vector
attr source "warmup(atomic(constant0(packetPushEnded) + sum(packetLength(packetPushStarted)) - sum(packetLength(packetPulled)) - sum(packetLength(packetRemoved)) - sum(packetLength(packetDropped))))"
attr title "queue bit length"
attr unit b
vector 98 singleMecHost.router3.ppp[2].ppp transmissionState:vector ETV
attr interpolationmode sample-hold
attr recordingmode vector
attr source transmissionStateChanged
attr title "tx state"
vector 99 singleMecHost.router4.ppp[0].queue queueLength:vector ETV
attr autoWarmupFilter false
attr interpolationmode sample-hold
attr recordingmode vector
attr source "warmup(atomic(constant0(packetPushEnded) + count(packetPushStarted) - count(packetPulled) - count(packetRemoved) - count(packetDropped)))"
attr title "queue length"
attr unit pk
vector 100 singleMecHost.router4.ppp[0].queue queueBitLength:vector ETV
attr autoWarmupFilter false
attr interpolationmode sample-hold
attr recordingmode vector
attr source "warmup(atomic(constant0(packetPushEnded) + sum(packetLength(packetPushStarted)) - sum(packetLength(packetPulled)) - sum(packetLength(packetRemoved)) - sum(packetLength(packetDropped))))"
attr title "queue bit length"
attr unit b
vector 101 singleMecHost.router4.ppp[0].ppp transmissionState:vector ETV
attr interpolationmode sample-hold
attr recordingmode vector
attr source transmissionStateChanged
attr title "tx state"
vector 102 singleMecHost.router4.ppp[1].queue queueLength:vector ETV
attr autoWarmupFilter false
attr interpolationmode sample-hold
attr recordingmode vector
attr source "warmup(atomic(constant0(packetPushEnded) + count(packetPushStarted) - count(packetPulled) - count(packetRemoved) - count(packetDropped)))"
attr title "queue length"
attr unit pk
vector 103 singleMecHost.router4.ppp[1].queue queueBitLength:vector ETV
attr autoWarmupFilter false
attr interpolationmode sample-hold
attr recordingmode vector
attr source "warmup(atomic(constant0(packetPushEnded) + sum(packetLength(packetPushStarted)) - sum(packetLength(packetPulled)) - sum(packetLength(packetRemoved)) - sum(packetLength(packetDropped))))"
attr title "queue bit length"
attr unit b
vector 104 singleMecHost.router4.ppp[1].ppp transmissionState:vector ETV
attr interpolationmode sample-hold
attr recordingmode vector
attr source transmissionStateChanged
attr title "tx state"
vector 105 singleMecHost.router4.ppp[2].queue queueLength:vector ETV
attr autoWarmupFilter false
attr interpolationmode sample-hold
attr recordingmode vector
attr source "warmup(atomic(constant0(packetPushEnded) + count(packetPushStarted) - count(packetPulled) - count(packetRemoved) - count(packetDropped)))"
attr title "queue length"
attr unit pk
vector 106 singleMecHost.router4.ppp[2].queue queueBitLength:vector ETV
attr autoWarmupFilter false
attr interpolationmode sample-hold
attr recordingmode vector
attr source "warmup(atomic(constant0(packetPushEnded) + sum(packetLength(packetPushStarted)) - sum(packetLength(packetPulled)) - sum(packetLength(packetRemoved)) - sum(packetLength(packetDropped))))"
attr title "queue bit length"
attr unit b
vector 107 singleMecHost.router4.ppp[2].ppp transmissionState:vector ETV
attr interpolationmode sample-hold
attr recordingmode vector
attr source transmissionStateChanged
attr title "tx state"
vector 108 singleMecHost.router4.ppp[3].queue queueLength:vector ETV
attr autoWarmupFilter false
attr interpolationmode sample-hold
attr recordingmode vector
attr source "warmup(atomic(constant0(packetPushEnded) + count(packetPushStarted) - count(packetPulled) - count(packetRemoved) - count(packetDropped)))"
attr title "queue length"
attr unit pk
vector 109 singleMecHost.router4.ppp[3].queue queueBitLength:vector ETV
attr autoWarmupFilter false
attr interpolationmode sample-hold
attr recordingmode vector
attr source "warmup(atomic(constant0(packetPushEnded) + sum(packetLength(packetPushStarted)) - sum(packetLength(packetPulled)) - sum(packetLength(packetRemoved)) - sum(packetLength(packetDropped))))"
attr title "queue bit length"
attr unit b
vector 110 singleMecHost.router4.ppp[3].ppp transmissionState:vector ETV
attr interpolationmode sample-hold
attr recordingmode vector
attr source transmissionStateChanged
attr title "tx state"
vector 111 singleMecHost.router5.ppp[0].queue queueLength:vector ETV
attr autoWarmupFilter false
attr interpolationmode sample-hold
attr recordingmode vector
attr source "warmup(atomic(constant0(packetPushEnded) + count(packetPushStarted) - count(packetPulled) - count(packetRemoved) - count(packetDropped)))"
attr title "queue length"
attr unit pk
vector 112 singleMecHost.router5.ppp[0].queue queueBitLength:vector ETV
attr autoWarmupFilter false
attr interpolationmode sample-hold
attr recordingmode vector
attr source "warmup(atomic(constant0(packetPushEnded) + sum(packetLength(packetPushStarted)) - sum(packetLength(packetPulled)) - sum(packetLength(packetRemoved)) - sum(packetLength(packetDropped))))"
attr title "queue bit length"
attr unit b
vector 113 singleMecHost.router5.ppp[0].ppp transmissionState:vector ETV
attr interpolationmode sample-hold
attr recordingmode vector
attr source transmissionStateChanged
attr title "tx state"
vector 114 singleMecHost.router5.ppp[1].queue queueLength:vector ETV
attr autoWarmupFilter false
attr interpolationmode sample-hold
attr recordingmode vector
attr source "warmup(atomic(constant0(packetPushEnded) + count(packetPushStarted) - count(packetPulled) - count(packetRemoved) - count(packetDropped)))"
attr title "queue length"
attr unit pk
vector 115 singleMecHost.router5.ppp[1].queue queueBitLength:vector ETV
attr autoWarmupFilter false
attr interpolationmode sample-hold
attr recordingmode vector
attr source "warmup(atomic(constant0(packetPushEnded) + sum(packetLength(packetPushStarted)) - sum(packetLength(packetPulled)) - sum(packetLength(packetRemoved)) - sum(packetLength(packetDropped))))"
attr title "queue bit length"
attr unit b
vector 116 singleMecHost.router5.ppp[1].ppp transmissionState:vector ETV
attr interpolationmode sample-hold
attr recordingmode vector
attr source transmissionStateChanged
attr title "tx state"
vector 117 singleMecHost.router5.ppp[2].queue queueLength:vector ETV
attr autoWarmupFilter false
attr interpolationmode sample-hold
attr recordingmode vector
attr source "warmup(atomic(constant0(packetPushEnded) + count(packetPushStarted) - count(packetPulled) - count(packetRemoved) - count(packetDropped)))"
attr title "queue length"
attr unit pk
vector 118 singleMecHost.router5.ppp[2].queue queueBitLength:vector ETV
attr autoWarmupFilter false
attr interpolationmode sample-hold
attr recordingmode vector
attr source "warmup(atomic(constant0(packetPushEnded) + sum(packetLength(packetPushStarted)) - sum(packetLength(packetPulled)) - sum(packetLength(packetRemoved)) - sum(packetLength(packetDropped))))"
attr title "queue bit length"
attr unit b
vector 119 singleMecHost.router5.ppp[2].ppp transmissionState:vector ETV
attr interpolationmode sample-hold
attr recordingmode vector
attr source transmissionStateChanged
attr title "tx state"
vector 120 singleMecHost.router5.ppp[3].queue queueLength:vector ETV
attr autoWarmupFilter false
attr interpolationmode sample-hold
attr recordingmode vector
attr source "warmup(atomic(constant0(packetPushEnded) + count(packetPushStarted) - count(packetPulled) - count(packetRemoved) - count(packetDropped)))"
attr title "queue length"
attr unit pk
vector 121 singleMecHost.router5.ppp[3].queue queueBitLength:vector ETV
attr autoWarmupFilter false
attr interpolationmode sample-hold
attr recordingmode vector
attr source "warmup(atomic(constant0(packetPushEnded) + sum(packetLength(packetPushStarted)) - sum(packetLength(packetPulled)) - sum(packetLength(packetRemoved)) - sum(packetLength(packetDropped))))"
attr title "queue bit length"
attr unit b
vector 122 singleMecHost.router5.ppp[3].ppp transmissionState:vector ETV
attr interpolationmode sample-hold
attr recordingmode vector
attr source transmissionStateChanged
attr title "tx state"
vector 123 singleMecHost.router6.ppp[0].queue queueLength:vector ETV
attr autoWarmupFilter false
attr interpolationmode sample-hold
attr recordingmode vector
attr source "warmup(atomic(constant0(packetPushEnded) + count(packetPushStarted) - count(packetPulled) - count(packetRemoved) - count(packetDropped)))"
attr title "queue length"
attr unit pk
vector 124 singleMecHost.router6.ppp[0].queue queueBitLength:vector ETV
attr autoWarmupFilter false
attr interpolationmode sample-hold
attr recordingmode vector
attr source "warmup(atomic(constant0(packetPushEnded) + sum(packetLength(packetPushStarted)) - sum(packetLength(packetPulled)) - sum(packetLength(packetRemoved)) - sum(packetLength(packetDropped))))"
attr title "queue bit length"
attr unit b
vector 125 singleMecHost.router6.ppp[0].ppp transmissionState:vector ETV
attr interpolationmode sample-hold
attr recordingmode vector
attr source transmissionStateChanged
attr title "tx state"
vector 126 singleMecHost.router6.ppp[1].queue queueLength:vector ETV
attr autoWarmupFilter false
attr interpolationmode sample-hold
attr recordingmode vector
attr source "warmup(atomic(constant0(packetPushEnded) + count(packetPushStarted) - count(packetPulled) - count(packetRemoved) - count(packetDropped)))"
attr title "queue length"
attr unit pk
vector 127 singleMecHost.router6.ppp[1].queue queueBitLength:vector ETV
attr autoWarmupFilter false
attr interpolationmode sample-hold
attr recordingmode vector
attr source "warmup(atomic(constant0(packetPushEnded) + sum(packetLength(packetPushStarted)) - sum(packetLength(packetPulled)) - sum(packetLength(packetRemoved)) - sum(packetLength(packetDropped))))"
attr title "queue bit length"
attr unit b
vector 128 singleMecHost.router6.ppp[1].ppp transmissionState:vector ETV
attr interpolationmode sample-hold
attr recordingmode vector
attr source transmissionStateChanged
attr title "tx state"
vector 129 singleMecHost.router6.ppp[2].queue queueLength:vector ETV
attr autoWarmupFilter false
attr interpolationmode sample-hold
attr recordingmode vector
attr source "warmup(atomic(constant0(packetPushEnded) + count(packetPushStarted) - count(packetPulled) - count(packetRemoved) - count(packetDropped)))"
attr title "queue length"
attr unit pk
vector 130 singleMecHost.router6.ppp[2].queue queueBitLength:vector ETV
attr autoWarmupFilter false
attr interpolationmode sample-hold
attr recordingmode vector
attr source "warmup(atomic(constant0(packetPushEnded) + sum(packetLength(packetPushStarted)) - sum(packetLength(packetPulled)) - sum(packetLength(packetRemoved)) - sum(packetLength(packetDropped))))"
attr title "queue bit length"
attr unit b
vector 131 singleMecHost.router6.ppp[2].ppp transmissionState:vector ETV
attr interpolationmode sample-hold
attr recordingmode vector
attr source transmissionStateChanged
attr title "tx state"
vector 132 singleMecHost.router7.ppp[0].queue queueLength:vector ETV
attr autoWarmupFilter false
attr interpolationmode sample-hold
attr recordingmode vector
attr source "warmup(atomic(constant0(packetPushEnded) + count(packetPushStarted) - count(packetPulled) - count(packetRemoved) - count(packetDropped)))"
attr title "queue length"
attr unit pk
vector 133 singleMecHost.router7.ppp[0].queue queueBitLength:vector ETV
attr autoWarmupFilter false
attr interpolationmode sample-hold
attr recordingmode vector
attr source "warmup(atomic(constant0(packetPushEnded) + sum(packetLength(packetPushStarted)) - sum(packetLength(packetPulled)) - sum(packetLength(packetRemoved)) - sum(packetLength(packetDropped))))"
attr title "queue bit length"
attr unit b
vector 134 singleMecHost.router7.ppp[0].ppp transmissionState:vector ETV
attr interpolationmode sample-hold
attr recordingmode vector
attr source transmissionStateChanged
attr title "tx state"
vector 135 singleMecHost.router7.ppp[1].queue queueLength:vector ETV
attr autoWarmupFilter false
attr interpolationmode sample-hold
attr recordingmode vector
attr source "warmup(atomic(constant0(packetPushEnded) + count(packetPushStarted) - count(packetPulled) - count(packetRemoved) - count(packetDropped)))"
attr title "queue length"
attr unit pk
vector 136 singleMecHost.router7.ppp[1].queue queueBitLength:vector ETV
attr autoWarmupFilter false
attr interpolationmode sample-hold
attr recordingmode vector
attr source "warmup(atomic(constant0(packetPushEnded) + sum(packetLength(packetPushStarted)) - sum(packetLength(packetPulled)) - sum(packetLength(packetRemoved)) - sum(packetLength(packetDropped))))"
attr title "queue bit length"
attr unit b
vector 137 singleMecHost.router7.ppp[1].ppp transmissionState:vector ETV
attr interpolationmode sample-hold
attr recordingmode vector
attr source transmissionStateChanged
attr title "tx state"
vector 138 singleMecHost.router7.ppp[2].queue queueLength:vector ETV
attr autoWarmupFilter false
attr interpolationmode sample-hold
attr recordingmode vector
attr source "warmup(atomic(constant0(packetPushEnded) + count(packetPushStarted) - count(packetPulled) - count(packetRemoved) - count(packetDropped)))"
attr title "queue length"
attr unit pk
vector 139 singleMecHost.router7.ppp[2].queue queueBitLength:vector ETV
attr autoWarmupFilter false
attr interpolationmode sample-hold
attr recordingmode vector
attr source "warmup(atomic(constant0(packetPushEnded) + sum(packetLength(packetPushStarted)) - sum(packetLength(packetPulled)) - sum(packetLength(packetRemoved)) - sum(packetLength(packetDropped))))"
attr title "queue bit length"
attr unit b
vector 140 singleMecHost.router7.ppp[2].ppp transmissionState:vector ETV
attr interpolationmode sample-hold
attr recordingmode vector
attr source transmissionStateChanged
attr title "tx state"
vector 141 singleMecHost.router8.ppp[0].queue queueLength:vector ETV
attr autoWarmupFilter false
attr interpolationmode sample-hold
attr recordingmode vector
attr source "warmup(atomic(constant0(packetPushEnded) + count(packetPushStarted) - count(packetPulled) - count(packetRemoved) - count(packetDropped)))"
attr title "queue length"
attr unit pk
vector 142 singleMecHost.router8.ppp[0].queue queueBitLength:vector ETV
attr autoWarmupFilter false
attr interpolationmode sample-hold
attr recordingmode vector
attr source "warmup(atomic(constant0(packetPushEnded) + sum(packetLength(packetPushStarted)) - sum(packetLength(packetPulled)) - sum(packetLength(packetRemoved)) - sum(packetLength(packetDropped))))"
attr title "queue bit length"
attr unit b
vector 143 singleMecHost.router8.ppp[0].ppp transmissionState:vector ETV
attr interpolationmode sample-hold
attr recordingmode vector
attr source transmissionStateChanged
attr title "tx state"
vector 144 singleMecHost.router8.ppp[1].queue queueLength:vector ETV
attr autoWarmupFilter false
attr interpolationmode sample-hold
attr recordingmode vector
attr source "warmup(atomic(constant0(packetPushEnded) + count(packetPushStarted) - count(packetPulled) - count(packetRemoved) - count(packetDropped)))"
attr title "queue length"
attr unit pk
vector 145 singleMecHost.router8.ppp[1].queue queueBitLength:vector ETV
attr autoWarmupFilter false
attr interpolationmode sample-hold
attr recordingmode vector
attr source "warmup(atomic(constant0(packetPushEnded) + sum(packetLength(packetPushStarted)) - sum(packetLength(packetPulled)) - sum(packetLength(packetRemoved)) - sum(packetLength(packetDropped))))"
attr title "queue bit length"
attr unit b
vector 146 singleMecHost.router8.ppp[1].ppp transmissionState:vector ETV
attr interpolationmode sample-hold
attr recordingmode vector
attr source transmissionStateChanged
attr title "tx state"
vector 147 singleMecHost.router8.ppp[2].queue queueLength:vector ETV
attr autoWarmupFilter false
attr interpolationmode sample-hold
attr recordingmode vector
attr source "warmup(atomic(constant0(packetPushEnded) + count(packetPushStarted) - count(packetPulled) - count(packetRemoved) - count(packetDropped)))"
attr title "queue length"
attr unit pk
vector 148 singleMecHost.router8.ppp[2].queue queueBitLength:vector ETV
attr autoWarmupFilter false
attr interpolationmode sample-hold
attr recordingmode vector
attr source "warmup(atomic(constant0(packetPushEnded) + sum(packetLength(packetPushStarted)) - sum(packetLength(packetPulled)) - sum(packetLength(packetRemoved)) - sum(packetLength(packetDropped))))"
attr title "queue bit length"
attr unit b
vector 149 singleMecHost.router8.ppp[2].ppp transmissionState:vector ETV
attr interpolationmode sample-hold
attr recordingmode vector
attr source transmissionStateChanged
attr title "tx state"
vector 150 singleMecHost.mecHost2.virtualisationInfrastructure.pppIf[0].queue queueLength:vector ETV
attr autoWarmupFilter false
attr interpolationmode sample-hold
attr recordingmode vector
attr source "warmup(atomic(constant0(packetPushEnded) + count(packetPushStarted) - count(packetPulled) - count(packetRemoved) - count(packetDropped)))"
attr title "queue length"
attr unit pk
vector 151 singleMecHost.mecHost2.virtualisationInfrastructure.pppIf[0].queue queueBitLength:vector ETV
attr autoWarmupFilter false
attr interpolationmode sample-hold
attr recordingmode vector
attr source "warmup(atomic(constant0(packetPushEnded) + sum(packetLength(packetPushStarted)) - sum(packetLength(packetPulled)) - sum(packetLength(packetRemoved)) - sum(packetLength(packetDropped))))"
attr title "queue bit length"
attr unit b
vector 152 singleMecHost.mecHost2.virtualisationInfrastructure.pppIf[0].ppp transmissionState:vector ETV
attr interpolationmode sample-hold
attr recordingmode vector
attr source transmissionStateChanged
attr title "tx state"
vector 153 singleMecHost.mecHost2.virtualisationInfrastructure.udp passedUpPk:vector(count) ETV
attr interpolationmode none
attr recordingmode vector(count)
attr source packetSentToUpper
attr title "packets passed up, count"
vector 154 singleMecHost.mecHost2.virtualisationInfrastructure.udp droppedPkWrongPort:vector(count) ETV
attr interpolationmode none
attr recordingmode vector(count)
attr source packetDropReasonIsNoPortFound(packetDropped)
attr title "packets dropped (wrong port), count"
vector 155 singleMecHost.mecHost2.virtualisationInfrastructure.udp droppedPkBadChecksum:vector(count) ETV
attr interpolationmode none
attr recordingmode vector(count)
attr source packetDropReasonIsIncorrectlyReceived(packetDropped)
attr title "packets dropped (checksum error), count"
vector 156 singleMecHost.mecHost2.upf_mec.ppp[0].queue queueLength:vector ETV
attr autoWarmupFilter false
attr interpolationmode sample-hold
attr recordingmode vector
attr source "warmup(atomic(constant0(packetPushEnded) + count(packetPushStarted) - count(packetPulled) - count(packetRemoved) - count(packetDropped)))"
attr title "queue length"
attr unit pk
vector 157 singleMecHost.mecHost2.upf_mec.ppp[0].queue queueBitLength:vector ETV
attr autoWarmupFilter false
attr interpolationmode sample-hold
attr recordingmode vector
attr source "warmup(atomic(constant0(packetPushEnded) + sum(packetLength(packetPushStarted)) - sum(packetLength(packetPulled)) - sum(packetLength(packetRemoved)) - sum(packetLength(packetDropped))))"
attr title "queue bit length"
attr unit b
vector 158 singleMecHost.mecHost2.upf_mec.ppp[0].ppp transmissionState:vector ETV
attr interpolationmode sample-hold
attr recordingmode vector
attr source transmissionStateChanged
attr title "tx state"
vector 159 singleMecHost.mecHost2.upf_mec.pppIf.queue queueLength:vector ETV
attr autoWarmupFilter false
attr interpolationmode sample-hold
attr recordingmode vector
attr source "warmup(atomic(constant0(packetPushEnded) + count(packetPushStarted) - count(packetPulled) - count(packetRemoved) - count(packetDropped)))"
attr title "queue length"
attr unit pk
vector 160 singleMecHost.mecHost2.upf_mec.pppIf.queue queueBitLength:vector ETV
attr autoWarmupFilter false
attr interpolationmode sample-hold
attr recordingmode vector
attr source "warmup(atomic(constant0(packetPushEnded) + sum(packetLength(packetPushStarted)) - sum(packetLength(packetPulled)) - sum(packetLength(packetRemoved)) - sum(packetLength(packetDropped))))"
attr title "queue bit length"
attr unit b
vector 161 singleMecHost.mecHost2.upf_mec.pppIf.ppp transmissionState:vector ETV
attr interpolationmode sample-hold
attr recordingmode vector
attr source transmissionStateChanged
attr title "tx state"
vector 162 singleMecHost.mecHost2.upf_mec.udp passedUpPk:vector(count) ETV
attr interpolationmode none
attr recordingmode vector(count)
attr source packetSentToUpper
attr title "packets passed up, count"
vector 163 singleMecHost.mecHost2.upf_mec.udp droppedPkWrongPort:vector(count) ETV
attr interpolationmode none
attr recordingmode vector(count)
attr source packetDropReasonIsNoPortFound(packetDropped)
attr title "packets dropped (wrong port), count"
vector 164 singleMecHost.mecHost2.upf_mec.udp droppedPkBadChecksum:vector(count) ETV
attr interpolationmode none
attr recordingmode vector(count)
attr source packetDropReasonIsIncorrectlyReceived(packetDropped)
attr title "packets dropped (checksum error), count"
vector 165 singleMecHost.ualcmp.pppIf.queue queueLength:vector ETV
attr autoWarmupFilter false
attr interpolationmode sample-hold
attr recordingmode vector
attr source "warmup(atomic(constant0(packetPushEnded) + count(packetPushStarted) - count(packetPulled) - count(packetRemoved) - count(packetDropped)))"
attr title "queue length"
attr unit pk
vector 166 singleMecHost.ualcmp.pppIf.queue queueBitLength:vector ETV
attr autoWarmupFilter false
attr interpolationmode sample-hold
attr recordingmode vector
attr source "warmup(atomic(constant0(packetPushEnded) + sum(packetLength(packetPushStarted)) - sum(packetLength(packetPulled)) - sum(packetLength(packetRemoved)) - sum(packetLength(packetDropped))))"
attr title "queue bit length"
attr unit b
vector 167 singleMecHost.ualcmp.pppIf.ppp transmissionState:vector ETV
attr interpolationmode sample-hold
attr recordingmode vector
attr source transmissionStateChanged
attr title "tx state"
vector 168 singleMecHost.ualcmp.udp passedUpPk:vector(count) ETV
attr interpolationmode none
attr recordingmode vector(count)
attr source packetSentToUpper
attr title "packets passed up, count"
vector 169 singleMecHost.ualcmp.udp droppedPkWrongPort:vector(count) ETV
attr interpolationmode none
attr recordingmode vector(count)
attr source packetDropReasonIsNoPortFound(packetDropped)
attr title "packets dropped (wrong port), count"
vector 170 singleMecHost.ualcmp.udp droppedPkBadChecksum:vector(count) ETV
attr interpolationmode none
attr recordingmode vector(count)
attr source packetDropReasonIsIncorrectlyReceived(packetDropped)
attr title "packets dropped (checksum error), count"
vector 171 singleMecHost.coreServer1.virtualisationInfrastructure.pppIf[0].queue queueLength:vector ETV
attr autoWarmupFilter false
attr interpolationmode sample-hold
attr recordingmode vector
attr source "warmup(atomic(constant0(packetPushEnded) + count(packetPushStarted) - count(packetPulled) - count(packetRemoved) - count(packetDropped)))"
attr title "queue length"
attr unit pk
vector 172 singleMecHost.coreServer1.virtualisationInfrastructure.pppIf[0].queue queueBitLength:vector ETV
attr autoWarmupFilter false
attr interpolationmode sample-hold
attr recordingmode vector
attr source "warmup(atomic(constant0(packetPushEnded) + sum(packetLength(packetPushStarted)) - sum(packetLength(packetPulled)) - sum(packetLength(packetRemoved)) - sum(packetLength(packetDropped))))"
attr title "queue bit length"
attr unit b
vector 173 singleMecHost.coreServer1.virtualisationInfrastructure.pppIf[0].ppp transmissionState:vector ETV
attr interpolationmode sample-hold
attr recordingmode vector
attr source transmissionStateChanged
attr title "tx state"
vector 174 singleMecHost.coreServer1.virtualisationInfrastructure.udp passedUpPk:vector(count) ETV
attr interpolationmode none
attr recordingmode vector(count)
attr source packetSentToUpper
attr title "packets passed up, count"
vector 175 singleMecHost.coreServer1.virtualisationInfrastructure.udp droppedPkWrongPort:vector(count) ETV
attr interpolationmode none
attr recordingmode vector(count)
attr source packetDropReasonIsNoPortFound(packetDropped)
attr title "packets dropped (wrong port), count"
vector 176 singleMecHost.coreServer1.virtualisationInfrastructure.udp droppedPkBadChecksum:vector(count) ETV
attr interpolationmode none
attr recordingmode vector(count)
attr source packetDropReasonIsIncorrectlyReceived(packetDropped)
attr title "packets dropped (checksum error), count"
vector 177 singleMecHost.coreServer1.upf_mec.ppp[0].queue queueLength:vector ETV
attr autoWarmupFilter false
attr interpolationmode sample-hold
attr recordingmode vector
attr source "warmup(atomic(constant0(packetPushEnded) + count(packetPushStarted) - count(packetPulled) - count(packetRemoved) - count(packetDropped)))"
attr title "queue length"
attr unit pk
vector 178 singleMecHost.coreServer1.upf_mec.ppp[0].queue queueBitLength:vector ETV
attr autoWarmupFilter false
attr interpolationmode sample-hold
attr recordingmode vector
attr source "warmup(atomic(constant0(packetPushEnded) + sum(packetLength(packetPushStarted)) - sum(packetLength(packetPulled)) - sum(packetLength(packetRemoved)) - sum(packetLength(packetDropped))))"
attr title "queue bit length"
attr unit b
vector 179 singleMecHost.coreServer1.upf_mec.ppp[0].ppp transmissionState:vector ETV
attr interpolationmode sample-hold
attr recordingmode vector
attr source transmissionStateChanged
attr title "tx state"
vector 180 singleMecHost.coreServer1.upf_mec.pppIf.queue queueLength:vector ETV
attr autoWarmupFilter false
attr interpolationmode sample-hold
attr recordingmode vector
attr source "warmup(atomic(constant0(packetPushEnded) + count(packetPushStarted) - count(packetPulled) - count(packetRemoved) - count(packetDropped)))"
attr title "queue length"
attr unit pk
vector 181 singleMecHost.coreServer1.upf_mec.pppIf.queue queueBitLength:vector ETV
attr autoWarmupFilter false
attr interpolationmode sample-hold
attr recordingmode vector
attr source "warmup(atomic(constant0(packetPushEnded) + sum(packetLength(packetPushStarted)) - sum(packetLength(packetPulled)) - sum(packetLength(packetRemoved)) - sum(packetLength(packetDropped))))"
attr title "queue bit length"
attr unit b
vector 182 singleMecHost.coreServer1.upf_mec.pppIf.ppp transmissionState:vector ETV
attr interpolationmode sample-hold
attr recordingmode vector
attr source transmissionStateChanged
attr title "tx state"
vector 183 singleMecHost.coreServer1.upf_mec.udp passedUpPk:vector(count) ETV
attr interpolationmode none
attr recordingmode vector(count)
attr source packetSentToUpper
attr title "packets passed up, count"
vector 184 singleMecHost.coreServer1.upf_mec.udp droppedPkWrongPort:vector(count) ETV
attr interpolationmode none
attr recordingmode vector(count)
attr source packetDropReasonIsNoPortFound(packetDropped)
attr title "packets dropped (wrong port), count"
vector 185 singleMecHost.coreServer1.upf_mec.udp droppedPkBadChecksum:vector(count) ETV
attr interpolationmode none
attr recordingmode vector(count)
attr source packetDropReasonIsIncorrectlyReceived(packetDropped)
attr title "packets dropped (checksum error), count"
vector 186 singleMecHost.coreServer2.virtualisationInfrastructure.pppIf[0].queue queueLength:vector ETV
attr autoWarmupFilter false
attr interpolationmode sample-hold
attr recordingmode vector
attr source "warmup(atomic(constant0(packetPushEnded) + count(packetPushStarted) - count(packetPulled) - count(packetRemoved) - count(packetDropped)))"
attr title "queue length"
attr unit pk
vector 187 singleMecHost.coreServer2.virtualisationInfrastructure.pppIf[0].queue queueBitLength:vector ETV
attr autoWarmupFilter false
attr interpolationmode sample-hold
attr recordingmode vector
attr source "warmup(atomic(constant0(packetPushEnded) + sum(packetLength(packetPushStarted)) - sum(packetLength(packetPulled)) - sum(packetLength(packetRemoved)) - sum(packetLength(packetDropped))))"
attr title "queue bit length"
attr unit b
vector 188 singleMecHost.coreServer2.virtualisationInfrastructure.pppIf[0].ppp transmissionState:vector ETV
attr interpolationmode sample-hold
attr recordingmode vector
attr source transmissionStateChanged
attr title "tx state"
vector 189 singleMecHost.coreServer2.virtualisationInfrastructure.udp passedUpPk:vector(count) ETV
attr interpolationmode none
attr recordingmode vector(count)
attr source packetSentToUpper
attr title "packets passed up, count"
vector 190 singleMecHost.coreServer2.virtualisationInfrastructure.udp droppedPkWrongPort:vector(count) ETV
attr interpolationmode none
attr recordingmode vector(count)
attr source packetDropReasonIsNoPortFound(packetDropped)
attr title "packets dropped (wrong port), count"
vector 191 singleMecHost.coreServer2.virtualisationInfrastructure.udp droppedPkBadChecksum:vector(count) ETV
attr interpolationmode none
attr recordingmode vector(count)
attr source packetDropReasonIsIncorrectlyReceived(packetDropped)
attr title "packets dropped (checksum error), count"
vector 192 singleMecHost.coreServer2.upf_mec.ppp[0].queue queueLength:vector ETV
attr autoWarmupFilter false
attr interpolationmode sample-hold
attr recordingmode vector
attr source "warmup(atomic(constant0(packetPushEnded) + count(packetPushStarted) - count(packetPulled) - count(packetRemoved) - count(packetDropped)))"
attr title "queue length"
attr unit pk
vector 193 singleMecHost.coreServer2.upf_mec.ppp[0].queue queueBitLength:vector ETV
attr autoWarmupFilter false
attr interpolationmode sample-hold
attr recordingmode vector
attr source "warmup(atomic(constant0(packetPushEnded) + sum(packetLength(packetPushStarted)) - sum(packetLength(packetPulled)) - sum(packetLength(packetRemoved)) - sum(packetLength(packetDropped))))"
attr title "queue bit length"
attr unit b
vector 194 singleMecHost.coreServer2.upf_mec.ppp[0].ppp transmissionState:vector ETV
attr interpolationmode sample-hold
attr recordingmode vector
attr source transmissionStateChanged
attr title "tx state"
vector 195 singleMecHost.coreServer2.upf_mec.pppIf.queue queueLength:vector ETV
attr autoWarmupFilter false
attr interpolationmode sample-hold
attr recordingmode vector
attr source "warmup(atomic(constant0(packetPushEnded) + count(packetPushStarted) - count(packetPulled) - count(packetRemoved) - count(packetDropped)))"
attr title "queue length"
attr unit pk
vector 196 singleMecHost.coreServer2.upf_mec.pppIf.queue queueBitLength:vector ETV
attr autoWarmupFilter false
attr interpolationmode sample-hold
attr recordingmode vector
attr source "warmup(atomic(constant0(packetPushEnded) + sum(packetLength(packetPushStarted)) - sum(packetLength(packetPulled)) - sum(packetLength(packetRemoved)) - sum(packetLength(packetDropped))))"
attr title "queue bit length"
attr unit b
vector 197 singleMecHost.coreServer2.upf_mec.pppIf.ppp transmissionState:vector ETV
attr interpolationmode sample-hold
attr recordingmode vector
attr source transmissionStateChanged
attr title "tx state"
vector 198 singleMecHost.coreServer2.upf_mec.udp passedUpPk:vector(count) ETV
attr interpolationmode none
attr recordingmode vector(count)
attr source packetSentToUpper
attr title "packets passed up, count"
vector 199 singleMecHost.coreServer2.upf_mec.udp droppedPkWrongPort:vector(count) ETV
attr interpolationmode none
attr recordingmode vector(count)
attr source packetDropReasonIsNoPortFound(packetDropped)
attr title "packets dropped (wrong port), count"
vector 200 singleMecHost.coreServer2.upf_mec.udp droppedPkBadChecksum:vector(count) ETV
attr interpolationmode none
attr recordingmode vector(count)
attr source packetDropReasonIsIncorrectlyReceived(packetDropped)
attr title "packets dropped (checksum error), count"
vector 201 singleMecHost.coreServer3.virtualisationInfrastructure.pppIf[0].queue queueLength:vector ETV
attr autoWarmupFilter false
attr interpolationmode sample-hold
attr recordingmode vector
attr source "warmup(atomic(constant0(packetPushEnded) + count(packetPushStarted) - count(packetPulled) - count(packetRemoved) - count(packetDropped)))"
attr title "queue length"
attr unit pk
vector 202 singleMecHost.coreServer3.virtualisationInfrastructure.pppIf[0].queue queueBitLength:vector ETV
attr autoWarmupFilter false
attr interpolationmode sample-hold
attr recordingmode vector
attr source "warmup(atomic(constant0(packetPushEnded) + sum(packetLength(packetPushStarted)) - sum(packetLength(packetPulled)) - sum(packetLength(packetRemoved)) - sum(packetLength(packetDropped))))"
attr title "queue bit length"
attr unit b
vector 203 singleMecHost.coreServer3.virtualisationInfrastructure.pppIf[0].ppp transmissionState:vector ETV
attr interpolationmode sample-hold
attr recordingmode vector
attr source transmissionStateChanged
attr title "tx state"
vector 204 singleMecHost.coreServer3.virtualisationInfrastructure.udp passedUpPk:vector(count) ETV
attr interpolationmode none
attr recordingmode vector(count)
attr source packetSentToUpper
attr title "packets passed up, count"
vector 205 singleMecHost.coreServer3.virtualisationInfrastructure.udp droppedPkWrongPort:vector(count) ETV
attr interpolationmode none
attr recordingmode vector(count)
attr source packetDropReasonIsNoPortFound(packetDropped)
attr title "packets dropped (wrong port), count"
vector 206 singleMecHost.coreServer3.virtualisationInfrastructure.udp droppedPkBadChecksum:vector(count) ETV
attr interpolationmode none
attr recordingmode vector(count)
attr source packetDropReasonIsIncorrectlyReceived(packetDropped)
attr title "packets dropped (checksum error), count"
vector 207 singleMecHost.coreServer3.upf_mec.ppp[0].queue queueLength:vector ETV
attr autoWarmupFilter false
attr interpolationmode sample-hold
attr recordingmode vector
attr source "warmup(atomic(constant0(packetPushEnded) + count(packetPushStarted) - count(packetPulled) - count(packetRemoved) - count(packetDropped)))"
attr title "queue length"
attr unit pk
vector 208 singleMecHost.coreServer3.upf_mec.ppp[0].queue queueBitLength:vector ETV
attr autoWarmupFilter false
attr interpolationmode sample-hold
attr recordingmode vector
attr source "warmup(atomic(constant0(packetPushEnded) + sum(packetLength(packetPushStarted)) - sum(packetLength(packetPulled)) - sum(packetLength(packetRemoved)) - sum(packetLength(packetDropped))))"
attr title "queue bit length"
attr unit b
vector 209 singleMecHost.coreServer3.upf_mec.ppp[0].ppp transmissionState:vector ETV
attr interpolationmode sample-hold
attr recordingmode vector
attr source transmissionStateChanged
attr title "tx state"
vector 210 singleMecHost.coreServer3.upf_mec.pppIf.queue queueLength:vector ETV
attr autoWarmupFilter false
attr interpolationmode sample-hold
attr recordingmode vector
attr source "warmup(atomic(constant0(packetPushEnded) + count(packetPushStarted) - count(packetPulled) - count(packetRemoved) - count(packetDropped)))"
attr title "queue length"
attr unit pk
vector 211 singleMecHost.coreServer3.upf_mec.pppIf.queue queueBitLength:vector ETV
attr autoWarmupFilter false
attr interpolationmode sample-hold
attr recordingmode vector
attr source "warmup(atomic(constant0(packetPushEnded) + sum(packetLength(packetPushStarted)) - sum(packetLength(packetPulled)) - sum(packetLength(packetRemoved)) - sum(packetLength(packetDropped))))"
attr title "queue bit length"
attr unit b
vector 212 singleMecHost.coreServer3.upf_mec.pppIf.ppp transmissionState:vector ETV
attr interpolationmode sample-hold
attr recordingmode vector
attr source transmissionStateChanged
attr title "tx state"
vector 213 singleMecHost.coreServer3.upf_mec.udp passedUpPk:vector(count) ETV
attr interpolationmode none
attr recordingmode vector(count)
attr source packetSentToUpper
attr title "packets passed up, count"
vector 214 singleMecHost.coreServer3.upf_mec.udp droppedPkWrongPort:vector(count) ETV
attr interpolationmode none
attr recordingmode vector(count)
attr source packetDropReasonIsNoPortFound(packetDropped)
attr title "packets dropped (wrong port), count"
vector 215 singleMecHost.coreServer3.upf_mec.udp droppedPkBadChecksum:vector(count) ETV
attr interpolationmode none
attr recordingmode vector(count)
attr source packetDropReasonIsIncorrectlyReceived(packetDropped)
attr title "packets dropped (checksum error), count"
vector 216 singleMecHost.coreServer4.virtualisationInfrastructure.pppIf[0].queue queueLength:vector ETV
attr autoWarmupFilter false
attr interpolationmode sample-hold
attr recordingmode vector
attr source "warmup(atomic(constant0(packetPushEnded) + count(packetPushStarted) - count(packetPulled) - count(packetRemoved) - count(packetDropped)))"
attr title "queue length"
attr unit pk
vector 217 singleMecHost.coreServer4.virtualisationInfrastructure.pppIf[0].queue queueBitLength:vector ETV
attr autoWarmupFilter false
attr interpolationmode sample-hold
attr recordingmode vector
attr source "warmup(atomic(constant0(packetPushEnded) + sum(packetLength(packetPushStarted)) - sum(packetLength(packetPulled)) - sum(packetLength(packetRemoved)) - sum(packetLength(packetDropped))))"
attr title "queue bit length"
attr unit b
vector 218 singleMecHost.coreServer4.virtualisationInfrastructure.pppIf[0].ppp transmissionState:vector ETV
attr interpolationmode sample-hold
attr recordingmode vector
attr source transmissionStateChanged
attr title "tx state"
vector 219 singleMecHost.coreServer4.virtualisationInfrastructure.udp passedUpPk:vector(count) ETV
attr interpolationmode none
attr recordingmode vector(count)
attr source packetSentToUpper
attr title "packets passed up, count"
vector 220 singleMecHost.coreServer4.virtualisationInfrastructure.udp droppedPkWrongPort:vector(count) ETV
attr interpolationmode none
attr recordingmode vector(count)
attr source packetDropReasonIsNoPortFound(packetDropped)
attr title "packets dropped (wrong port), count"
vector 221 singleMecHost.coreServer4.virtualisationInfrastructure.udp droppedPkBadChecksum:vector(count) ETV
attr interpolationmode none
attr recordingmode vector(count)
attr source packetDropReasonIsIncorrectlyReceived(packetDropped)
attr title "packets dropped (checksum error), count"
vector 222 singleMecHost.coreServer4.upf_mec.ppp[0].queue queueLength:vector ETV
attr autoWarmupFilter false
attr interpolationmode sample-hold
attr recordingmode vector
attr source "warmup(atomic(constant0(packetPushEnded) + count(packetPushStarted) - count(packetPulled) - count(packetRemoved) - count(packetDropped)))"
attr title "queue length"
attr unit pk
vector 223 singleMecHost.coreServer4.upf_mec.ppp[0].queue queueBitLength:vector ETV
attr autoWarmupFilter false
attr interpolationmode sample-hold
attr recordingmode vector
attr source "warmup(atomic(constant0(packetPushEnded) + sum(packetLength(packetPushStarted)) - sum(packetLength(packetPulled)) - sum(packetLength(packetRemoved)) - sum(packetLength(packetDropped))))"
attr title "queue bit length"
attr unit b
vector 224 singleMecHost.coreServer4.upf_mec.ppp[0].ppp transmissionState:vector ETV
attr interpolationmode sample-hold
attr recordingmode vector
attr source transmissionStateChanged
attr title "tx state"
vector 225 singleMecHost.coreServer4.upf_mec.pppIf.queue queueLength:vector ETV
attr autoWarmupFilter false
attr interpolationmode sample-hold
attr recordingmode vector
attr source "warmup(atomic(constant0(packetPushEnded) + count(packetPushStarted) - count(packetPulled) - count(packetRemoved) - count(packetDropped)))"
attr title "queue length"
attr unit pk
vector 226 singleMecHost.coreServer4.upf_mec.pppIf.queue queueBitLength:vector ETV
attr autoWarmupFilter false
attr interpolationmode sample-hold
attr recordingmode vector
attr source "warmup(atomic(constant0(packetPushEnded) + sum(packetLength(packetPushStarted)) - sum(packetLength(packetPulled)) - sum(packetLength(packetRemoved)) - sum(packetLength(packetDropped))))"
attr title "queue bit length"
attr unit b
vector 227 singleMecHost.coreServer4.upf_mec.pppIf.ppp transmissionState:vector ETV
attr interpolationmode sample-hold
attr recordingmode vector
attr source transmissionStateChanged
attr title "tx state"
vector 228 singleMecHost.coreServer4.upf_mec.udp passedUpPk:vector(count) ETV
attr interpolationmode none
attr recordingmode vector(count)
attr source packetSentToUpper
attr title "packets passed up, count"
vector 229 singleMecHost.coreServer4.upf_mec.udp droppedPkWrongPort:vector(count) ETV
attr interpolationmode none
attr recordingmode vector(count)
attr source packetDropReasonIsNoPortFound(packetDropped)
attr title "packets dropped (wrong port), count"
vector 230 singleMecHost.coreServer4.upf_mec.udp droppedPkBadChecksum:vector(count) ETV
attr interpolationmode none
attr recordingmode vector(count)
attr source packetDropReasonIsIncorrectlyReceived(packetDropped)
attr title "packets dropped (checksum error), count"
vector 231 singleMecHost.ue[0].cellularNic.phy servingCell:vector ETV
attr recordingmode vector
attr source servingCell
attr title "ID of the serving eNodeB for the UE"
attr unit ""
vector 232 singleMecHost.ue[0].cellularNic.nrChannelModel[0] distance:vector ETV
attr recordingmode vector
attr source distance
attr title "distance between UE and serving base station"
attr unit meters
vector 233 singleMecHost.ue[0].cellularNic.nrPhy servingCell:vector ETV
attr recordingmode vector
attr source servingCell
attr title "ID of the serving eNodeB for the UE"
attr unit ""
vector 234 singleMecHost.ue[1].cellularNic.phy servingCell:vector ETV
attr recordingmode vector
attr source servingCell
attr title "ID of the serving eNodeB for the UE"
attr unit ""
vector 235 singleMecHost.ue[1].cellularNic.nrChannelModel[0] distance:vector ETV
attr recordingmode vector
attr source distance
attr title "distance between UE and serving base station"
attr unit meters
vector 236 singleMecHost.ue[1].cellularNic.nrPhy servingCell:vector ETV
attr recordingmode vector
attr source servingCell
attr title "ID of the serving eNodeB for the UE"
attr unit ""
vector 237 singleMecHost.ue[2].cellularNic.phy servingCell:vector ETV
attr recordingmode vector
attr source servingCell
attr title "ID of the serving eNodeB for the UE"
attr unit ""
vector 238 singleMecHost.ue[2].cellularNic.nrChannelModel[0] distance:vector ETV
attr recordingmode vector
attr source distance
attr title "distance between UE and serving base station"
attr unit meters
vector 239 singleMecHost.ue[2].cellularNic.nrPhy servingCell:vector ETV
attr recordingmode vector
attr source servingCell
attr title "ID of the serving eNodeB for the UE"
attr unit ""
vector 240 singleMecHost.ue[0].tcp.conn-91 tcpRcvQueueBytes:vector ETV
attr interpolationmode sample-hold
attr recordingmode vector
vector 241 singleMecHost.ue[0].tcp.conn-91 rcvAdv:vector ETV
attr interpolationmode sample-hold
attr recordingmode vector
vector 242 singleMecHost.ue[0].tcp.conn-91 rcvWnd:vector ETV
attr interpolationmode sample-hold
attr recordingmode vector
vector 243 singleMecHost.ue[0].tcp.conn-91 sndAck:vector ETV
attr interpolationmode sample-hold
attr recordingmode vector
[...]
351	314539 154 11654 11731 1.098000582 1.0980009588 6 76 84 480 38496
352	314693 160 11656 11734 1.098000582 1.0980009588 6 608 672 3840 2463744
353	314853 161 11656 11734 1.098000582 1.0980009588 6 0 6.4e-09 1.28e-08 8.192e-17
354	315014 161 11656 11734 1.098000582 1.0980009588 6 608 672 3840 2463744
355	315175 155 11656 11734 1.098000582 1.0980009588 6 83 91 522 45510
356	315330 156 11678 11758 1.0980006984 1.0980010816 6 83 91 522 45510
357	315486 156 11678 11758 1.0980006984 1.0980010816 6 76 84 480 38496
358	315642 162 11680 11761 1.0980006984 1.0980010816 6 608 672 3840 2463744
359	315804 161 11680 11761 1.0980006984 1.0980010816 6 0 6.4e-09 1.28e-08 8.192e-17
360	315965 161 11680 11761 1.0980006984 1.0980010816 6 608 672 3840 2463744
361	316126 155 11680 11761 1.0980006984 1.0980010816 6 83 91 522 45510
362	316281 155 11698 11780 1.0980008148 1.0980012044 6 83 91 522 45510
363	316436 155 11698 11780 1.0980008148 1.0980012044 6 76 84 480 38496
364	316591 78 11700 11765 1.0980008148 1.0980011316 3 56 56 168 9408
365	316669 81 11702 11767 1.0980008148 1.0980011316 3 320 320 960 307200
366	316750 75 11702 11767 1.0980008148 1.0980011316 3 0 0 0 0
367	316825 81 11702 11767 1.0980008148 1.0980011316 3 320 320 960 307200
368	316906 78 11702 11767 1.0980008148 1.0980011316 3 47 47 141 6627
369	316984 76 11720 11783 1.0980009024 1.0980012192 3 47 47 141 6627
370	317060 76 11720 11783 1.0980009024 1.0980012192 3 40 40 120 4800
374	317136 31 11103 11103 1.084006481738 1.084006481738 1 65989 65989 65989 4354548121
375	317167 29 11722 11722 1.0980009024 1.0980009024 1 65535 65535 65535 4294836225
376	317196 27 11103 11103 1.084006481738 1.084006481738 1 0 0 0 0
377	317223 31 11103 11103 1.084006481738 1.084006481738 1 65535 65535 65535 4294836225
378	317254 29 11103 11103 1.084006481738 1.084006481738 1 454 454 454 206116
379	317283 90 11105 11179 1.084006481738 1.084011143122 3 3824 3824 11472 43868928
380	317373 81 11105 11179 1.084006481738 1.084011143122 3 0 0 0 0
381	317454 90 11105 11179 1.084006481738 1.084011143122 3 3824 3824 11472 43868928
382	317544 87 11105 11179 1.084006481738 1.084011143122 3 485 485 1455 705675
383	317631 31 11127 11127 1.084008657566 1.084008657566 1 65989 65989 65989 4354548121
384	317662 27 11757 11757 1.09800108 1.09800108 1 65535 65535 65535 4294836225
385	317689 27 11127 11127 1.084008657566 1.084008657566 1 0 0 0 0
386	317716 31 11127 11127 1.084008657566 1.084008657566 1 65535 65535 65535 4294836225
387	317747 29 11127 11127 1.084008657566 1.084008657566 1 454 454 454 206116
388	317776 87 11107 11185 1.084006919738 1.084011581122 3 485 485 1455 705675
389	317863 87 11107 11185 1.084006919738 1.084011581122 3 478 478 1434 685452
390	317950 87 11110 11188 1.084006919738 1.084011581122 3 494 494 1482 732108
391	318037 169 11112 11911 1.084006919738 1.1030016092 6 528 4112 13920 51561984
392	318206 154 11112 11911 1.084006919738 1.1030016092 6 0 0 0 0
393	318360 169 11112 11911 1.084006919738 1.1030016092 6 528 4112 13920 51561984
394	318529 163 11112 11911 1.084006919738 1.1030016092 6 73 521 1782 830310
395	318692 31 11177 11177 1.084011143122 1.084011143122 1 65989 65989 65989 4354548121
396	318723 29 11785 11785 1.0980012192 1.0980012192 1 65535 65535 65535 4294836225
397	318752 27 11177 11177 1.084011143122 1.084011143122 1 0 0 0 0
398	318779 31 11177 11177 1.084011143122 1.084011143122 1 65535 65535 65535 4294836225
399	318810 29 11177 11177 1.084011143122 1.084011143122 1 454 454 454 206116
400	318839 165 11114 11921 1.084007386538 1.1030017176 6 73 521 1782 830310
401	319004 165 11114 11921 1.084007386538 1.1030017176 6 66 514 1740 805656
402	319169 171 11116 11923 1.084007386538 1.1030017176 6 528 4112 13920 51561984
403	319340 156 11116 11923 1.084007386538 1.1030017176 6 0 0 0 0
404	319496 171 11116 11923 1.084007386538 1.1030017176 6 528 4112 13920 51561984
405	319667 165 11116 11923 1.084007386538 1.1030017176 6 73 521 1782 830310
406	319832 190 10522 11933 1.0340037796 1.103001826 7 73 521 1865 837199
407	320022 190 10522 11933 1.0340037796 1.103001826 7 66 514 1816 811432
408	320212 197 10524 11935 1.0340037796 1.103001826 7 528 4112 14528 51931648
409	320409 180 10524 11935 1.0340037796 1.103001826 7 0 0 0 0
410	320589 197 10524 11935 1.0340037796 1.103001826 7 528 4112 14528 51931648
411	320786 190 10524 11935 1.0340037796 1.103001826 7 73 521 1865 837199
412	320976 189 10530 11945 1.034003896 1.1030019344 7 73 521 1865 837199
413	321165 189 10530 11945 1.034003896 1.1030019344 7 66 514 1816 811432
414	321354 196 10532 11947 1.034003896 1.1030019344 7 528 4112 14528 51931648
415	321550 179 10532 11947 1.034003896 1.1030019344 7 0 0 0 0
416	321729 196 10532 11947 1.034003896 1.1030019344 7 528 4112 14528 51931648
417	321925 189 10532 11947 1.034003896 1.1030019344 7 73 521 1865 837199
418	322114 191 10538 11957 1.0340040124 1.1030020428 7 73 521 1865 837199
419	322305 191 10538 11957 1.0340040124 1.1030020428 7 66 514 1816 811432
420	322496 198 10540 11959 1.0340040124 1.1030020428 7 528 4112 14528 51931648
421	322694 181 10540 11959 1.0340040124 1.1030020428 7 0 0 0 0
422	322875 198 10540 11959 1.0340040124 1.1030020428 7 528 4112 14528 51931648
423	323073 191 10540 11959 1.0340040124 1.1030020428 7 73 521 1865 837199
424	323264 214 10525 11974 1.03400382 1.1030021512 8 73 521 1948 844088
425	323478 214 10525 11974 1.03400382 1.1030021512 8 66 514 1892 817208
426	323692 222 10527 11976 1.03400382 1.1030021512 8 528 4112 15136 52301312
427	323914 203 10527 11976 1.03400382 1.1030021512 8 0 0 0 0
428	324117 222 10527 11976 1.03400382 1.1030021512 8 528 4112 15136 52301312
429	324339 214 10527 11976 1.03400382 1.1030021512 8 73 521 1948 844088
430	324553 217 10533 11988 1.0340039364 1.1030022596 8 73 521 1948 844088
431	324770 217 10533 11988 1.0340039364 1.1030022596 8 66 514 1892 817208
432	324987 225 10535 11990 1.0340039364 1.1030022596 8 528 4112 15136 52301312
433	325212 206 10535 11990 1.0340039364 1.1030022596 8 0 0 0 0
434	325418 225 10535 11990 1.0340039364 1.1030022596 8 528 4112 15136 52301312
435	325643 217 10535 11990 1.0340039364 1.1030022596 8 73 521 1948 844088
436	325860 216 10541 11992 1.0340040528 1.103002368 8 73 521 1948 844088
437	326076 216 10541 11992 1.0340040528 1.103002368 8 66 514 1892 817208
438	326292 216 10543 11994 1.0340040528 1.103002368 8 46 494 1732 744728
439	326508 216 10546 11997 1.0340040528 1.103002368 8 30 478 1604 691352
440	326724 216 10546 11997 1.0340040528 1.103002368 8 31 479 1612 694568
441	326940 216 10547 11998 1.0340040528 1.103002368 8 31 479 1612 694568
442	327156 415 10520 12013 1.034003744 1.104 18 33 481 3342 1405794
443	327571 162 10617 12007 1.035 1.104 9 0 0 0 0
444	327733 174 10617 12007 1.035 1.104 9 33 481 1671 702897
445	327907 36 10637 11811 1.035 1.099 2 0 0 0 0
446	327943 36 10637 11811 1.035 1.099 2 0 0 0 0
447	327979 36 10637 11811 1.035 1.099 2 1 1 2 2
448	328015 36 10639 11813 1.035 1.099 2 0 0 0 0
449	328051 36 10639 11813 1.035 1.099 2 0 0 0 0
450	328087 36 10639 11813 1.035 1.099 2 1 1 2 2
451	328123 36 10641 11815 1.035 1.099 2 0 0 0 0
452	328159 36 10641 11815 1.035 1.099 2 0 0 0 0
453	328195 36 10641 11815 1.035 1.099 2 1 1 2 2
454	328231 57 10650 12032 1.036 1.105 3 15 15 45 675
455	328288 96 10650 12032 1.036 1.105 3 55.546755311442 63.372730279971 180.2255070742 10859.973238816
456	328384 57 10652 12034 1.036 1.105 3 15 15 45 675
457	328441 94 10652 12034 1.036 1.105 3 64.430079583821 68.57368670111 198.54277617977 13148.947480955
458	328535 57 10654 12036 1.036 1.105 3 15 15 45 675
459	328592 96 10654 12036 1.036 1.105 3 53.412169887847 58.323178459808 165.8641629285 9184.3816057105
460	328688 198 10674 12076 1.039 1.108 9 0.004 0.004 0.036 0.000144
461	328886 58 10677 12059 1.039 1.108 3 33 481 557 234299
462	328944 54 10677 12059 1.039 1.108 3 0 0 0 0
463	328998 66 10677 12059 1.039 1.108 3 0.004 0.004 0.012 4.8e-05
464	329064 95 10677 12059 1.039 1.108 3 27.978339350181 898.9898989899 1408.2001921418 1040549.8193185
465	329159 54 10677 12059 1.039 1.108 3 0 0 0 0
466	329213 88 10677 12059 1.039 1.108 3 0.004989812662 0.0049979104 0.014983979062 7.483991278582e-05
467	329301 58 10677 12059 1.039 1.108 3 31 479 551 232083
468	329359 54 10677 12059 1.039 1.108 3 0 0 0 0
469	329413 58 10678 12060 1.039 1.108 3 31 479 551 232083
470	329471 58 10678 12060 1.039 1.108 3 30 478 548 230984
471	329529 42 10681 11301 1.039 1.089 2 2579 2579 5158 13302482
472	329571 40 10681 11301 1.039 1.089 2 454 454 908 412232
473	329611 38 10681 11301 1.039 1.089 2 0 438 438 191844
474	329649 22 10681 10681 1.039 1.039 1 65535 65535 65535 4294836225
475	329671 58 10686 12069 1.039 1.108 3 33 481 557 234299
476	329729 54 10686 12069 1.039 1.108 3 0 0 0 0
477	329783 66 10686 12069 1.039 1.108 3 0.004 0.004 0.012 4.8e-05
478	329849 95 10686 12069 1.039 1.108 3 27.978339350181 898.9898989899 1408.2001921418 1040549.8193185
479	329944 54 10686 12069 1.039 1.108 3 0 0 0 0
480	329998 89 10686 12069 1.039 1.108 3 0.004987636834 0.0049977712 0.014981355234 7.4813726580611e-05
481	330087 58 10686 12069 1.039 1.108 3 31 479 551 232083
482	330145 54 10686 12069 1.039 1.108 3 0 0 0 0
483	330199 58 10687 12070 1.039 1.108 3 31 479 551 232083
484	330257 58 10687 12070 1.039 1.108 3 30 478 548 230984
485	330315 42 10690 11317 1.039 1.089 2 2579 2579 5158 13302482
486	330357 40 10690 11317 1.039 1.089 2 454 454 908 412232
487	330397 38 10690 11317 1.039 1.089 2 0 438 438 191844
488	330435 22 10690 10690 1.039 1.039 1 65535 65535 65535 4294836225
489	330457 58 10695 12079 1.039 1.108 3 33 481 557 234299
490	330515 54 10695 12079 1.039 1.108 3 0 0 0 0
491	330569 66 10695 12079 1.039 1.108 3 0.004 0.004 0.012 4.8e-05
492	330635 95 10695 12079 1.039 1.108 3 27.978339350181 898.9898989899 1408.2001921418 1040549.8193185
493	330730 54 10695 12079 1.039 1.108 3 0 0 0 0
494	330784 88 10695 12079 1.039 1.108 3 0.004985151278 0.004997632 0.014978421678 7.4784461895524e-05
495	330872 58 10695 12079 1.039 1.108 3 31 479 551 232083
496	330930 54 10695 12079 1.039 1.108 3 0 0 0 0
497	330984 58 10696 12080 1.039 1.108 3 31 479 551 232083
498	331042 58 10696 12080 1.039 1.108 3 30 478 548 230984
499	331100 42 10699 11333 1.039 1.089 2 2579 2579 5158 13302482
500	331142 40 10699 11333 1.039 1.089 2 454 454 908 412232
501	331182 38 10699 11333 1.039 1.089 2 0 438 438 191844
502	331220 22 10699 10699 1.039 1.039 1 65535 65535 65535 4294836225
503	331242 52 10714 12095 1.04 1.109 3 0 0 0 0
504	331294 52 10714 12095 1.04 1.109 3 0 0 0 0
505	331346 52 10714 12095 1.04 1.109 3 1 1 3 3
506	331398 52 10716 12097 1.04 1.109 3 0 0 0 0
507	331450 52 10716 12097 1.04 1.109 3 0 0 0 0
508	331502 52 10716 12097 1.04 1.109 3 1 1 3 3
509	331554 52 10718 12099 1.04 1.109 3 0 0 0 0
510	331606 52 10718 12099 1.04 1.109 3 0 0 0 0
511	331658 52 10718 12099 1.04 1.109 3 1 1 3 3
512	331710 27 11722 11722 1.0980009024 1.0980009024 1 454 454 454 206116
513	331737 28 11722 11722 1.0980009024 1.0980009024 1 3017 3017 3017 9102289
514	331765 25 11722 11722 1.0980009024 1.0980009024 1 0 0 0 0
515	331790 54 11103 11722 1.084006481738 1.0980009024 2 0 438 438 191844
516	331844 25 11757 11757 1.09800108 1.09800108 1 454 454 454 206116
517	331869 26 11757 11757 1.09800108 1.09800108 1 3017 3017 3017 9102289
518	331895 23 11757 11757 1.09800108 1.09800108 1 0 0 0 0
519	331918 52 11127 11757 1.084008657566 1.09800108 2 0 438 438 191844
520	331970 27 11785 11785 1.0980012192 1.0980012192 1 454 454 454 206116
521	331997 28 11785 11785 1.0980012192 1.0980012192 1 3017 3017 3017 9102289
522	332025 25 11785 11785 1.0980012192 1.0980012192 1 0 0 0 0
523	332050 54 11177 11785 1.084011143122 1.0980012192 2 0 438 438 191844
524	332104 38 11411 11429 1.094 1.094 2 28 35 63 2009
525	332142 38 11412 11430 1.094 1.094 2 28 35 63 2009
526	332180 38 11413 11431 1.094 1.094 2 28 35 63 2009
527	332218 19 11417 11417 1.094 1.094 1 55 55 55 3025
528	332237 19 11417 11417 1.094 1.094 1 55 55 55 3025
529	332256 19 11418 11418 1.094 1.094 1 55 55 55 3025
530	332275 19 11418 11418 1.094 1.094 1 55 55 55 3025
531	332294 19 11419 11419 1.094 1.094 1 55 55 55 3025
532	332313 19 11419 11419 1.094 1.094 1 55 55 55 3025
533	332332 38 11423 12063 1.094 1.108 2 10 35 45 1325
534	332370 38 11424 12073 1.094 1.108 2 10 35 45 1325
535	332408 38 11425 12083 1.094 1.108 2 10 35 45 1325
537	332446 18 10681 10681 1.039 1.039 1 0 0 0 0
539	332464 18 10690 10690 1.039 1.039 1 0 0 0 0
541	332482 18 10699 10699 1.039 1.039 1 0 0 0 0
558	332500 25 11722 11722 1.0980009024 1.0980009024 1 0 0 0 0
561	332525 21 11873 11873 1.1 1.1 1 256800 256800 256800 65946240000
562	332546 21 11873 11873 1.1 1.1 1 256800 256800 256800 65946240000
563	332567 23 11757 11757 1.09800108 1.09800108 1 0 0 0 0
564	332590 21 11888 11888 1.1 1.1 1 256800 256800 256800 65946240000
565	332611 21 11888 11888 1.1 1.1 1 256800 256800 256800 65946240000
566	332632 21 11903 11903 1.1 1.1 1 256800 256800 256800 65946240000
567	332653 21 11903 11903 1.1 1.1 1 256800 256800 256800 65946240000
568	332674 25 11785 11785 1.0980012192 1.0980012192 1 0 0 0 0
569	332699 21 11915 11915 1.1 1.1 1 256800 256800 256800 65946240000
570	332720 21 11915 11915 1.1 1.1 1 256800 256800 256800 65946240000
571	332741 21 11927 11927 1.1 1.1 1 256800 256800 256800 65946240000
572	332762 21 11927 11927 1.1 1.1 1 256800 256800 256800 65946240000
573	332783 21 11939 11939 1.1 1.1 1 256800 256800 256800 65946240000
574	332804 21 11939 11939 1.1 1.1 1 256800 256800 256800 65946240000
575	332825 21 11951 11951 1.1 1.1 1 256800 256800 256800 65946240000
576	332846 21 11951 11951 1.1 1.1 1 256800 256800 256800 65946240000
577	332867 114 10568 10598 1.034006481738 1.034011143122 3 3.640138e-06 7.683922e-06 1.6831226e-05 1.0262213931268e-10
578	332981 30 11103 11103 1.084006481738 1.084006481738 1 2579 2579 2579 6651241
579	333011 30 11127 11127 1.084008657566 1.084008657566 1 2579 2579 2579 6651241
580	333041 30 11177 11177 1.084011143122 1.084011143122 1 2579 2579 2579 6651241
581	333071 22 10681 10681 1.039 1.039 1 0.015 0.015 0.015 0.000225
582	333093 28 10681 10681 1.039 1.039 1 0.003953125 0.003953125 0.003953125 1.5627197265625e-05
583	333121 25 10681 10681 1.039 1.039 1 0.577875 0.577875 0.577875 0.333939515625
584	333146 28 10681 10681 1.039 1.039 1 2.315453125 2.315453125 2.315453125 5.3613231740723
585	333174 21 10681 10681 1.039 1.039 1 1608 1608 1608 2585664
586	333195 27 10681 10681 1.039 1.039 1 4294967295 4294967295 4294967295 1.844674406512e+19
587	333222 36 10681 11301 1.039 1.089 2 0 0 0 0
588	333258 22 10690 10690 1.039 1.039 1 0.015 0.015 0.015 0.000225
589	333280 28 10690 10690 1.039 1.039 1 0.003953125 0.003953125 0.003953125 1.5627197265625e-05
590	333308 25 10690 10690 1.039 1.039 1 0.577875 0.577875 0.577875 0.333939515625
591	333333 28 10690 10690 1.039 1.039 1 2.315453125 2.315453125 2.315453125 5.3613231740723
592	333361 21 10690 10690 1.039 1.039 1 1608 1608 1608 2585664
593	333382 27 10690 10690 1.039 1.039 1 4294967295 4294967295 4294967295 1.844674406512e+19
594	333409 36 10690 11317 1.039 1.089 2 0 0 0 0
595	333445 22 10699 10699 1.039 1.039 1 0.015 0.015 0.015 0.000225
596	333467 28 10699 10699 1.039 1.039 1 0.003953125 0.003953125 0.003953125 1.5627197265625e-05
597	333495 25 10699 10699 1.039 1.039 1 0.577875 0.577875 0.577875 0.333939515625
598	333520 28 10699 10699 1.039 1.039 1 2.315453125 2.315453125 2.315453125 5.3613231740723
599	333548 21 10699 10699 1.039 1.039 1 1608 1608 1608 2585664
600	333569 27 10699 10699 1.039 1.039 1 4294967295 4294967295 4294967295 1.844674406512e+19
601	333596 36 10699 11333 1.039 1.089 2 0 0 0 0
602	333632 38 11722 11722 1.0980009024 1.0980009024 1 0.013994420662 0.013994420662 0.013994420662 0.00019584380966501
603	333670 36 11722 11722 1.0980009024 1.0980009024 1 0.0032796235 0.0032796235 0.0032796235 1.0755930301752e-05
604	333706 38 11722 11722 1.0980009024 1.0980009024 1 0.577279756226 0.577279756226 0.577279756226 0.33325191694835
605	333744 38 11722 11722 1.0980009024 1.0980009024 1 2.312398648404 2.312398648404 2.312398648404 5.3471875091406
606	333782 28 11722 11722 1.0980009024 1.0980009024 1 1608 1608 1608 2585664
607	333810 34 11722 11722 1.0980009024 1.0980009024 1 4294967295 4294967295 4294967295 1.844674406512e+19
608	333844 36 11757 11757 1.09800108 1.09800108 1 0.013992422434 0.013992422434 0.013992422434 0.00019578788557151
609	333880 36 11757 11757 1.09800108 1.09800108 1 0.003279166601 0.003279166601 0.003279166601 1.0752933597114e-05
610	333916 36 11757 11757 1.09800108 1.09800108 1 0.577279328916 0.577279328916 0.577279328916 0.33325142359371
611	333952 36 11757 11757 1.09800108 1.09800108 1 2.312396482265 2.312396482265 2.312396482265 5.3471774911915
612	333988 26 11757 11757 1.09800108 1.09800108 1 1608 1608 1608 2585664
613	334014 32 11757 11757 1.09800108 1.09800108 1 4294967295 4294967295 4294967295 1.844674406512e+19
614	334046 38 11785 11785 1.0980012192 1.0980012192 1 0.013990076078 0.013990076078 0.013990076078 0.00019572222866823
615	334084 38 11785 11785 1.0980012192 1.0980012192 1 0.003278505744 0.003278505744 0.003278505744 1.0748599913441e-05
616	334122 38 11785 11785 1.0980012192 1.0980012192 1 0.577278720567 0.577278720567 0.577278720567 0.33325072121947
617	334160 38 11785 11785 1.0980012192 1.0980012192 1 2.312393388012 2.312393388012 2.312393388012 5.3471631809216
618	334198 28 11785 11785 1.0980012192 1.0980012192 1 1608 1608 1608 2585664
619	334226 34 11785 11785 1.0980012192 1.0980012192 1 4294967295 4294967295 4294967295 1.844674406512e+19
624	334260 168 10574 10608 1.034006481738 1.034011143122 6 40 48 264 11712
625	334428 168 10574 10608 1.034006481738 1.034011143122 6 40 48 264 11712
643	334596 80 11726 11782 1.098000926 1.0980012044 3 672 672 2016 1354752
644	334676 158 11726 11726 0.1 1 10 0 0 0 0
645	334834 74 11726 11782 1.098000926 1.0980012044 3 0 0 0 0
646	334908 80 11726 11782 1.098000926 1.0980012044 3 672 672 2016 1354752
647	334988 158 11726 11726 0.1 1 10 0 0 0 0
648	335146 77 11726 11782 1.098000926 1.0980012044 3 91 91 273 24843
649	335223 77 11747 11792 1.0980010488 1.0980013272 3 91 91 273 24843
650	335300 77 11747 11792 1.0980010488 1.0980013272 3 84 84 252 21168
651	335377 77 11749 11794 1.0980010488 1.0980013272 3 64 64 192 12288
652	335454 80 11751 11796 1.0980010488 1.0980013272 3 384 384 1152 442368
653	335534 158 11751 11751 0.1 1 10 0 0 0 0
654	335692 74 11751 11796 1.0980010488 1.0980013272 3 0 0 0 0
655	335766 80 11751 11796 1.0980010488 1.0980013272 3 384 384 1152 442368
656	335846 158 11751 11751 0.1 1 10 0 0 0 0
657	336004 77 11751 11796 1.0980010488 1.0980013272 3 55 55 165 9075
658	336081 77 11769 11798 1.0980011428 1.0980014212 3 55 55 165 9075
659	336158 77 11769 11798 1.0980011428 1.0980014212 3 48 48 144 6912
660	336235 77 11771 11800 1.0980011428 1.0980014212 3 28 28 84 2352
661	336312 77 11855 11883 1.1030011428 1.1030014212 3 10 10 30 300
662	336389 80 11857 11885 1.1030011428 1.1030014212 3 240 240 720 172800
663	336469 174 11857 11857 0.1 1.1 11 0 0 0 0
664	336643 74 11857 11885 1.1030011428 1.1030014212 3 0 0 0 0
665	336717 80 11857 11885 1.1030011428 1.1030014212 3 240 240 720 172800
666	336797 174 11857 11857 0.1 1.1 11 0 0 0 0
667	336971 77 11857 11885 1.1030011428 1.1030014212 3 37 37 111 4107
668	337048 78 11859 11894 1.1030012224 1.1030015008 3 37 37 111 4107
669	337126 78 11859 11894 1.1030012224 1.1030015008 3 30 30 90 2700
670	337204 78 11862 11897 1.1030012224 1.1030015008 3 46 46 138 6348
671	337282 81 11864 11899 1.1030012224 1.1030015008 3 528 528 1584 836352
672	337363 174 11864 11864 0.1 1.1 11 0 0 0 0
673	337537 75 11864 11899 1.1030012224 1.1030015008 3 0 0 0 0
674	337612 81 11864 11899 1.1030012224 1.1030015008 3 528 528 1584 836352
675	337693 174 11864 11864 0.1 1.1 11 0 0 0 0
676	337867 78 11864 11899 1.1030012224 1.1030015008 3 73 73 219 15987
677	337945 76 11871 11909 1.1030013308 1.1030016092 3 73 73 219 15987
678	338021 76 11871 11909 1.1030013308 1.1030016092 3 66 66 198 13068
