version 3
run MultiMec-0-20250416-10:08:22-15761
attr configname MultiMec
attr datetime 20250416-10:08:22
attr datetimef 20250416-100822
attr experiment MultiMec
attr inifile omnetpp.ini
attr iterationvars "$u=0, $numRbs=50, $numUEs=3"
attr iterationvarsd u=0/numRbs=50/numUEs=3
attr iterationvarsf u=0,numRbs=50,numUEs=3-
attr measurement "$u=0, $numRbs=50, $numUEs=3"
attr network multimechost.singleMecHost
attr processid 15761
attr repetition 0
attr replication #0
attr resultdir results
attr runnumber 0
attr seedset 0
itervar numRbs 50
itervar numUEs 3
itervar u 0
config image-path ../../../../inet-4.4.1/images:../../../../simu5g-1.2.1/images
config sim-time-limit 35s
config network multimechost.singleMecHost
config *.carrierAggregation.numComponentCarriers 1
config *.carrierAggregation.componentCarrier[0].numerologyIndex 0
config *.carrierAggregation.componentCarrier[0].carrierFrequency 2GHz
config *.carrierAggregation.componentCarrier[0].numBands 50
config *.gnb1.cellularNic.numCarriers 1
config *.gnb1.cellularNic.channelModel[0].componentCarrierIndex 0
config *.ue[*].cellularNic.numCarriers 1
config *.ue[*].cellularNic.nrChannelModel[0].componentCarrierIndex 0
config *.numUe 3
config *.ue[*].macCellId 0
config *.ue[*].masterId 0
config *.ue[*].nrMacCellId 1
config *.ue[*].nrMasterId 1
config **.dynamicCellAssociation true
config **.enableHandover true
config **.mobility.constraintAreaMinZ 0m
config **.mobility.constraintAreaMaxZ 0m
config *.ue[*].mobility.initFromDisplayString false
config *.ue[*].mobility.typename LinearMobility
config *.ue[*].mobility.updateInterval 0.05s
config *.gNodeB1.mobility.initFromDisplayString true
config **.numUes 3
config **.ue[0].mobility.initialX 120m
config **.ue[0].mobility.initialY 50m
config **.ue[0].mobility.initialMovementHeading 90deg
config **.ue[0].mobility.speed 1mps
config **.ue[1].mobility.initialX 110m
config **.ue[1].mobility.initialY 90m
config **.ue[1].mobility.initialMovementHeading 90deg
config **.ue[1].mobility.speed 3mps
config **.ue[2].mobility.initialX 60m
config **.ue[2].mobility.initialY 130m
config **.ue[2].mobility.initialMovementHeading 90deg
config **.ue[2].mobility.speed 10mps
config **.mobility.verbose true
config *.ue[0].numApps 2
config *.ue[0].app[0].typename DeviceApp
config *.ue[0].app[0].localPort 4500
config *.ue[0].app[0].UALCMPAddress "\"ualcmp\""
config *.ue[0].app[0].UALCMPPort 1000
config *.ue[0].app[0].appPackageSource "\"ApplicationDescriptors/WarningAlertApp.json\""
config *.ue[0].app[1].typename UEWarningAlertApp
config *.ue[0].app[1].deviceAppAddress "\"ue[\"+string(ancestorIndex(1))+\"]\""
config *.ue[0].app[1].deviceAppPort 4500
config *.ue[0].app[1].startTime 1s
config *.ue[0].app[1].stopTime 35s
config *.ue[1].numApps 2
config *.ue[1].app[0].typename DeviceApp
config *.ue[1].app[0].localPort 4500
config *.ue[1].app[0].UALCMPAddress "\"ualcmp\""
config *.ue[1].app[0].UALCMPPort 1000
config *.ue[1].app[0].appPackageSource "\"ApplicationDescriptors/WarningAlertApp.json\""
config *.ue[1].app[1].typename UEWarningAlertApp
config *.ue[1].app[1].deviceAppAddress "\"ue[\"+string(ancestorIndex(1))+\"]\""
config *.ue[1].app[1].deviceAppPort 4500
config *.ue[1].app[1].startTime 1s
config *.ue[1].app[1].stopTime 35s
config *.ue[2].numApps 2
config *.ue[2].app[0].typename DeviceApp
config *.ue[2].app[0].localPort 4500
config *.ue[2].app[0].UALCMPAddress "\"ualcmp\""
config *.ue[2].app[0].UALCMPPort 1000
config *.ue[2].app[0].appPackageSource "\"ApplicationDescriptors/WarningAlertApp.json\""
config *.ue[2].app[1].typename UEWarningAlertApp
config *.ue[2].app[1].deviceAppAddress "\"ue[\"+string(ancestorIndex(1))+\"]\""
config *.ue[2].app[1].deviceAppPort 4500
config *.ue[2].app[1].startTime 1s
config *.ue[2].app[1].stopTime 35s
config **.hasRNISupport true
config **.tcp.typename Tcp
config **.tcp.advertisedWindow 65535
config **.tcp.tcpAlgorithmClass "\"TcpReno\""
config **.tcp.sackSupport true
config **.mecHost*.virtualisationInfrastructure.ipv4.forwarding true
config *.mecHost1.maxMECApps 100
config *.mecHost1.maxRam 15MB
config *.mecHost1.maxDisk 10GB
config *.mecHost1.maxCpuSpeed 900
config *.mecHost2.maxMECApps 10000
config *.mecHost2.maxRam 15MB
config *.mecHost2.maxDisk 100MB
config *.mecHost2.maxCpuSpeed 1600000
config *.coreServer1.maxMECApps 200
config *.coreServer1.maxRam 15MB
config *.coreServer1.maxDisk 500TB
config *.coreServer1.maxCpuSpeed 4000
config *.coreServer2.maxMECApps 30000
config *.coreServer2.maxRam 15MB
config *.coreServer2.maxDisk 10GB
config *.coreServer2.maxCpuSpeed 4600000
config *.coreServer3.maxMECApps 3000
config *.coreServer3.maxRam 15MB
config *.coreServer3.maxDisk 10GB
config *.coreServer3.maxCpuSpeed 46000
config *.coreServer4.maxMECApps 300
config *.coreServer4.maxRam 15MB
config *.coreServer4.maxDisk 10GB
config *.coreServer4.maxCpuSpeed 460
config *.mecHost*.bsList "\"gnb1\""
config *.coreServer*.bsList "\"gnb1\""
config *.upf.typename UPF
config *.upf.forwarding true
config *.upf.qosEnabled true
config *.upf.highLatencyThreshold 50ms
config *.upf.routeTable "xmldoc(\"routes.xml\")"
config *.mecHost1.mecPlatform.numMecServices 1
config *.mecHost1.mecPlatform.mecService[0].typename LocationService
config *.mecHost1.mecPlatform.mecService[0].localAddress "\"mecHost1.virtualisationInfrastructure\""
config *.mecHost1.mecPlatform.mecService[0].localPort 10020
config *.mecHost1.mecPlatform.serviceRegistry.localAddress "\"mecHost1.virtualisationInfrastructure\""
config *.mecHost1.mecPlatform.serviceRegistry.localPort 10021
config *.mecHost2.mecPlatform.numMecServices 1
config *.mecHost2.mecPlatform.mecService[0].typename LocationService
config *.mecHost2.mecPlatform.mecService[0].localAddress "\"mecHost2.virtualisationInfrastructure\""
config *.mecHost2.mecPlatform.mecService[0].localPort 10022
config *.mecHost2.mecPlatform.serviceRegistry.localAddress "\"mecHost2.virtualisationInfrastructure\""
config *.mecHost2.mecPlatform.serviceRegistry.localPort 10023
config *.mecHost1.mecPlatform.serviceRegistry.rng-0 0
config *.mecHost1.mecPlatform.serviceRegistry.rng-1 1
config *.mecHost1.mecPlatform.mecService[0].rng-0 0
config *.mecHost1.mecPlatform.mecService[0].rng-1 1
config *.mecHost1.mecPlatform.mecService[0].requestServiceTime 20us
config *.mecHost1.mecPlatform.mecService[0].subscriptionServiceTime 11us
config *.mecHost2.mecPlatform.serviceRegistry.rng-0 0
config *.mecHost2.mecPlatform.serviceRegistry.rng-1 1
config *.mecHost2.mecPlatform.mecService[0].rng-0 0
config *.mecHost2.mecPlatform.mecService[0].rng-1 1
config *.mecHost2.mecPlatform.mecService[0].requestServiceTime 20us
config *.mecHost2.mecPlatform.mecService[0].subscriptionServiceTime 11us
config *.mecOrchestrator.mecHostList "\"mecHost1, mecHost2, coreServer1, coreServer2, coreServer3, coreServer4 \""
config *.mecOrchestrator.mecApplicationPackageList "\"WarningAlertApp\""
config *.mecHost*.mecPlatformManager.mecOrchestrator "\"mecOrchestrator\""
config *.coreServer*.mecPlatformManager.mecOrchestrator "\"mecOrchestrator\""
config *.mecOrchestrator.loadBalancingAlgorithm "\"random\""
config **.smartRouter.updateInterval 2s
config **.smartRouter.vector-recording true
config **.linkVisualizer.displayLinks true
config **.linkVisualizer.recordLinks true
config output-scalar-file-append false
config **.routingRecorder.enabled false
config output-scalar-file "results/MultiMec/$u=0, $numRbs=50, $numUEs=3-0.sca"
config output-vector-file "results/MultiMec/$u=0, $numRbs=50, $numUEs=3-0.vec"
config seed-set 0
config num-rngs 3
config **.sctp.**.scalar-recording false
config **.sctp.**.vector-recording false
config **.vector-recording true
config **.mecHost*.**.vector-recording true
config **.coreServer*.**.vector-recording true
config **.interfaceTable.recordStats true
config **.linkVisualizer.displayLinks true
config **.linkVisualizer.recordLinks true
config **.queue.recordStatistics true
config **.queue.recordDroppedPackets true
config *.playgroundSizeX 1100m
config *.playgroundSizeY 800m
config *.playgroundSizeZ 50m
config **.sctp.nagleEnabled false
config **.sctp.enableHeartbeats false
config **.downlink_interference true
config **.uplink_interference true
config **.ueTxPower 26
config **.eNodeBTxPower 46
config **.targetBler 0.01
config **.blerShift 5
config **.fbPeriod 40
config **.configurator.routingFile "\"static-routes.xml\""
config **.configurator.addStaticRoutes true
config **.configurator.addDefaultRoutes false
config **.configurator.optimizeRoutes false

vector 0 singleMecHost.upf.ppp[0].queue queueLength:vector ETV
attr autoWarmupFilter false
attr interpolationmode sample-hold
attr recordingmode vector
attr source "warmup(atomic(constant0(packetPushEnded) + count(packetPushStarted) - count(packetPulled) - count(packetRemoved) - count(packetDropped)))"
attr title "queue length"
attr unit pk
vector 1 singleMecHost.upf.ppp[0].queue queueBitLength:vector ETV
attr autoWarmupFilter false
attr interpolationmode sample-hold
attr recordingmode vector
attr source "warmup(atomic(constant0(packetPushEnded) + sum(packetLength(packetPushStarted)) - sum(packetLength(packetPulled)) - sum(packetLength(packetRemoved)) - sum(packetLength(packetDropped))))"
attr title "queue bit length"
attr unit b
vector 2 singleMecHost.upf.ppp[0].ppp transmissionState:vector ETV
attr interpolationmode sample-hold
attr recordingmode vector
attr source transmissionStateChanged
attr title "tx state"
vector 3 singleMecHost.upf.ppp[1].queue queueLength:vector ETV
attr autoWarmupFilter false
attr interpolationmode sample-hold
attr recordingmode vector
attr source "warmup(atomic(constant0(packetPushEnded) + count(packetPushStarted) - count(packetPulled) - count(packetRemoved) - count(packetDropped)))"
attr title "queue length"
attr unit pk
vector 4 singleMecHost.upf.ppp[1].queue queueBitLength:vector ETV
attr autoWarmupFilter false
attr interpolationmode sample-hold
attr recordingmode vector
attr source "warmup(atomic(constant0(packetPushEnded) + sum(packetLength(packetPushStarted)) - sum(packetLength(packetPulled)) - sum(packetLength(packetRemoved)) - sum(packetLength(packetDropped))))"
attr title "queue bit length"
attr unit b
vector 5 singleMecHost.upf.ppp[1].ppp transmissionState:vector ETV
attr interpolationmode sample-hold
attr recordingmode vector
attr source transmissionStateChanged
attr title "tx state"
vector 6 singleMecHost.upf.ppp[2].queue queueLength:vector ETV
attr autoWarmupFilter false
attr interpolationmode sample-hold
attr recordingmode vector
attr source "warmup(atomic(constant0(packetPushEnded) + count(packetPushStarted) - count(packetPulled) - count(packetRemoved) - count(packetDropped)))"
attr title "queue length"
attr unit pk
vector 7 singleMecHost.upf.ppp[2].queue queueBitLength:vector ETV
attr autoWarmupFilter false
attr interpolationmode sample-hold
attr recordingmode vector
attr source "warmup(atomic(constant0(packetPushEnded) + sum(packetLength(packetPushStarted)) - sum(packetLength(packetPulled)) - sum(packetLength(packetRemoved)) - sum(packetLength(packetDropped))))"
attr title "queue bit length"
attr unit b
vector 8 singleMecHost.upf.ppp[2].ppp transmissionState:vector ETV
attr interpolationmode sample-hold
attr recordingmode vector
attr source transmissionStateChanged
attr title "tx state"
vector 9 singleMecHost.upf.ppp[3].queue queueLength:vector ETV
attr autoWarmupFilter false
attr interpolationmode sample-hold
attr recordingmode vector
attr source "warmup(atomic(constant0(packetPushEnded) + count(packetPushStarted) - count(packetPulled) - count(packetRemoved) - count(packetDropped)))"
attr title "queue length"
attr unit pk
vector 10 singleMecHost.upf.ppp[3].queue queueBitLength:vector ETV
attr autoWarmupFilter false
attr interpolationmode sample-hold
attr recordingmode vector
attr source "warmup(atomic(constant0(packetPushEnded) + sum(packetLength(packetPushStarted)) - sum(packetLength(packetPulled)) - sum(packetLength(packetRemoved)) - sum(packetLength(packetDropped))))"
attr title "queue bit length"
attr unit b
vector 11 singleMecHost.upf.ppp[3].ppp transmissionState:vector ETV
attr interpolationmode sample-hold
attr recordingmode vector
attr source transmissionStateChanged
attr title "tx state"
vector 12 singleMecHost.upf.ppp[4].queue queueLength:vector ETV
attr autoWarmupFilter false
attr interpolationmode sample-hold
attr recordingmode vector
attr source "warmup(atomic(constant0(packetPushEnded) + count(packetPushStarted) - count(packetPulled) - count(packetRemoved) - count(packetDropped)))"
attr title "queue length"
attr unit pk
vector 13 singleMecHost.upf.ppp[4].queue queueBitLength:vector ETV
attr autoWarmupFilter false
attr interpolationmode sample-hold
attr recordingmode vector
attr source "warmup(atomic(constant0(packetPushEnded) + sum(packetLength(packetPushStarted)) - sum(packetLength(packetPulled)) - sum(packetLength(packetRemoved)) - sum(packetLength(packetDropped))))"
attr title "queue bit length"
attr unit b
vector 14 singleMecHost.upf.ppp[4].ppp transmissionState:vector ETV
attr interpolationmode sample-hold
attr recordingmode vector
attr source transmissionStateChanged
attr title "tx state"
vector 15 singleMecHost.upf.pppIf.queue queueLength:vector ETV
attr autoWarmupFilter false
attr interpolationmode sample-hold
attr recordingmode vector
attr source "warmup(atomic(constant0(packetPushEnded) + count(packetPushStarted) - count(packetPulled) - count(packetRemoved) - count(packetDropped)))"
attr title "queue length"
attr unit pk
vector 16 singleMecHost.upf.pppIf.queue queueBitLength:vector ETV
attr autoWarmupFilter false
attr interpolationmode sample-hold
attr recordingmode vector
attr source "warmup(atomic(constant0(packetPushEnded) + sum(packetLength(packetPushStarted)) - sum(packetLength(packetPulled)) - sum(packetLength(packetRemoved)) - sum(packetLength(packetDropped))))"
attr title "queue bit length"
attr unit b
vector 17 singleMecHost.upf.pppIf.ppp transmissionState:vector ETV
attr interpolationmode sample-hold
attr recordingmode vector
attr source transmissionStateChanged
attr title "tx state"
vector 18 singleMecHost.upf.udp passedUpPk:vector(count) ETV
attr interpolationmode none
attr recordingmode vector(count)
attr source packetSentToUpper
attr title "packets passed up, count"
vector 19 singleMecHost.upf.udp droppedPkWrongPort:vector(count) ETV
attr interpolationmode none
attr recordingmode vector(count)
attr source packetDropReasonIsNoPortFound(packetDropped)
attr title "packets dropped (wrong port), count"
vector 20 singleMecHost.upf.udp droppedPkBadChecksum:vector(count) ETV
attr interpolationmode none
attr recordingmode vector(count)
attr source packetDropReasonIsIncorrectlyReceived(packetDropped)
attr title "packets dropped (checksum error), count"
vector 21 singleMecHost.iUpf.ppp[0].queue queueLength:vector ETV
attr autoWarmupFilter false
attr interpolationmode sample-hold
attr recordingmode vector
attr source "warmup(atomic(constant0(packetPushEnded) + count(packetPushStarted) - count(packetPulled) - count(packetRemoved) - count(packetDropped)))"
attr title "queue length"
attr unit pk
vector 22 singleMecHost.iUpf.ppp[0].queue queueBitLength:vector ETV
attr autoWarmupFilter false
attr interpolationmode sample-hold
attr recordingmode vector
attr source "warmup(atomic(constant0(packetPushEnded) + sum(packetLength(packetPushStarted)) - sum(packetLength(packetPulled)) - sum(packetLength(packetRemoved)) - sum(packetLength(packetDropped))))"
attr title "queue bit length"
attr unit b
vector 23 singleMecHost.iUpf.ppp[0].ppp transmissionState:vector ETV
attr interpolationmode sample-hold
attr recordingmode vector
attr source transmissionStateChanged
attr title "tx state"
vector 24 singleMecHost.iUpf.ppp[1].queue queueLength:vector ETV
attr autoWarmupFilter false
attr interpolationmode sample-hold
attr recordingmode vector
attr source "warmup(atomic(constant0(packetPushEnded) + count(packetPushStarted) - count(packetPulled) - count(packetRemoved) - count(packetDropped)))"
attr title "queue length"
attr unit pk
vector 25 singleMecHost.iUpf.ppp[1].queue queueBitLength:vector ETV
attr autoWarmupFilter false
attr interpolationmode sample-hold
attr recordingmode vector
attr source "warmup(atomic(constant0(packetPushEnded) + sum(packetLength(packetPushStarted)) - sum(packetLength(packetPulled)) - sum(packetLength(packetRemoved)) - sum(packetLength(packetDropped))))"
attr title "queue bit length"
attr unit b
vector 26 singleMecHost.iUpf.ppp[1].ppp transmissionState:vector ETV
attr interpolationmode sample-hold
attr recordingmode vector
attr source transmissionStateChanged
attr title "tx state"
vector 27 singleMecHost.iUpf.ppp[2].queue queueLength:vector ETV
attr autoWarmupFilter false
attr interpolationmode sample-hold
attr recordingmode vector
attr source "warmup(atomic(constant0(packetPushEnded) + count(packetPushStarted) - count(packetPulled) - count(packetRemoved) - count(packetDropped)))"
attr title "queue length"
attr unit pk
vector 28 singleMecHost.iUpf.ppp[2].queue queueBitLength:vector ETV
attr autoWarmupFilter false
attr interpolationmode sample-hold
attr recordingmode vector
attr source "warmup(atomic(constant0(packetPushEnded) + sum(packetLength(packetPushStarted)) - sum(packetLength(packetPulled)) - sum(packetLength(packetRemoved)) - sum(packetLength(packetDropped))))"
attr title "queue bit length"
attr unit b
vector 29 singleMecHost.iUpf.ppp[2].ppp transmissionState:vector ETV
attr interpolationmode sample-hold
attr recordingmode vector
attr source transmissionStateChanged
attr title "tx state"
vector 30 singleMecHost.iUpf.ppp[3].queue queueLength:vector ETV
attr autoWarmupFilter false
attr interpolationmode sample-hold
attr recordingmode vector
attr source "warmup(atomic(constant0(packetPushEnded) + count(packetPushStarted) - count(packetPulled) - count(packetRemoved) - count(packetDropped)))"
attr title "queue length"
attr unit pk
vector 31 singleMecHost.iUpf.ppp[3].queue queueBitLength:vector ETV
attr autoWarmupFilter false
attr interpolationmode sample-hold
attr recordingmode vector
attr source "warmup(atomic(constant0(packetPushEnded) + sum(packetLength(packetPushStarted)) - sum(packetLength(packetPulled)) - sum(packetLength(packetRemoved)) - sum(packetLength(packetDropped))))"
attr title "queue bit length"
attr unit b
vector 32 singleMecHost.iUpf.ppp[3].ppp transmissionState:vector ETV
attr interpolationmode sample-hold
attr recordingmode vector
attr source transmissionStateChanged
attr title "tx state"
vector 33 singleMecHost.iUpf.pppIf.queue queueLength:vector ETV
attr autoWarmupFilter false
attr interpolationmode sample-hold
attr recordingmode vector
attr source "warmup(atomic(constant0(packetPushEnded) + count(packetPushStarted) - count(packetPulled) - count(packetRemoved) - count(packetDropped)))"
attr title "queue length"
attr unit pk
vector 34 singleMecHost.iUpf.pppIf.queue queueBitLength:vector ETV
attr autoWarmupFilter false
attr interpolationmode sample-hold
attr recordingmode vector
attr source "warmup(atomic(constant0(packetPushEnded) + sum(packetLength(packetPushStarted)) - sum(packetLength(packetPulled)) - sum(packetLength(packetRemoved)) - sum(packetLength(packetDropped))))"
attr title "queue bit length"
attr unit b
vector 35 singleMecHost.iUpf.pppIf.ppp transmissionState:vector ETV
attr interpolationmode sample-hold
attr recordingmode vector
attr source transmissionStateChanged
attr title "tx state"
vector 36 singleMecHost.iUpf.udp passedUpPk:vector(count) ETV
attr interpolationmode none
attr recordingmode vector(count)
attr source packetSentToUpper
attr title "packets passed up, count"
vector 37 singleMecHost.iUpf.udp droppedPkWrongPort:vector(count) ETV
attr interpolationmode none
attr recordingmode vector(count)
attr source packetDropReasonIsNoPortFound(packetDropped)
attr title "packets dropped (wrong port), count"
vector 38 singleMecHost.iUpf.udp droppedPkBadChecksum:vector(count) ETV
attr interpolationmode none
attr recordingmode vector(count)
attr source packetDropReasonIsIncorrectlyReceived(packetDropped)
attr title "packets dropped (checksum error), count"
vector 39 singleMecHost.gnb1.pppIf.queue queueLength:vector ETV
attr autoWarmupFilter false
attr interpolationmode sample-hold
attr recordingmode vector
attr source "warmup(atomic(constant0(packetPushEnded) + count(packetPushStarted) - count(packetPulled) - count(packetRemoved) - count(packetDropped)))"
attr title "queue length"
attr unit pk
vector 40 singleMecHost.gnb1.pppIf.queue queueBitLength:vector ETV
attr autoWarmupFilter false
attr interpolationmode sample-hold
attr recordingmode vector
attr source "warmup(atomic(constant0(packetPushEnded) + sum(packetLength(packetPushStarted)) - sum(packetLength(packetPulled)) - sum(packetLength(packetRemoved)) - sum(packetLength(packetDropped))))"
attr title "queue bit length"
attr unit b
vector 41 singleMecHost.gnb1.pppIf.ppp transmissionState:vector ETV
attr interpolationmode sample-hold
attr recordingmode vector
attr source transmissionStateChanged
attr title "tx state"
vector 42 singleMecHost.gnb1.pppMEHostIf.queue queueLength:vector ETV
attr autoWarmupFilter false
attr interpolationmode sample-hold
attr recordingmode vector
attr source "warmup(atomic(constant0(packetPushEnded) + count(packetPushStarted) - count(packetPulled) - count(packetRemoved) - count(packetDropped)))"
attr title "queue length"
attr unit pk
vector 43 singleMecHost.gnb1.pppMEHostIf.queue queueBitLength:vector ETV
attr autoWarmupFilter false
attr interpolationmode sample-hold
attr recordingmode vector
attr source "warmup(atomic(constant0(packetPushEnded) + sum(packetLength(packetPushStarted)) - sum(packetLength(packetPulled)) - sum(packetLength(packetRemoved)) - sum(packetLength(packetDropped))))"
attr title "queue bit length"
attr unit b
vector 44 singleMecHost.gnb1.pppMEHostIf.ppp transmissionState:vector ETV
attr interpolationmode sample-hold
attr recordingmode vector
attr source transmissionStateChanged
attr title "tx state"
vector 45 singleMecHost.gnb1.udp passedUpPk:vector(count) ETV
attr interpolationmode none
attr recordingmode vector(count)
attr source packetSentToUpper
attr title "packets passed up, count"
vector 46 singleMecHost.gnb1.udp droppedPkWrongPort:vector(count) ETV
attr interpolationmode none
attr recordingmode vector(count)
attr source packetDropReasonIsNoPortFound(packetDropped)
attr title "packets dropped (wrong port), count"
vector 47 singleMecHost.gnb1.udp droppedPkBadChecksum:vector(count) ETV
attr interpolationmode none
attr recordingmode vector(count)
attr source packetDropReasonIsIncorrectlyReceived(packetDropped)
attr title "packets dropped (checksum error), count"
vector 48 singleMecHost.ue[0].udp passedUpPk:vector(count) ETV
attr interpolationmode none
attr recordingmode vector(count)
attr source packetSentToUpper
attr title "packets passed up, count"
vector 49 singleMecHost.ue[0].udp droppedPkWrongPort:vector(count) ETV
attr interpolationmode none
attr recordingmode vector(count)
attr source packetDropReasonIsNoPortFound(packetDropped)
attr title "packets dropped (wrong port), count"
vector 50 singleMecHost.ue[0].udp droppedPkBadChecksum:vector(count) ETV
attr interpolationmode none
attr recordingmode vector(count)
attr source packetDropReasonIsIncorrectlyReceived(packetDropped)
attr title "packets dropped (checksum error), count"
vector 51 singleMecHost.ue[1].udp passedUpPk:vector(count) ETV
attr interpolationmode none
attr recordingmode vector(count)
attr source packetSentToUpper
attr title "packets passed up, count"
vector 52 singleMecHost.ue[1].udp droppedPkWrongPort:vector(count) ETV
attr interpolationmode none
attr recordingmode vector(count)
attr source packetDropReasonIsNoPortFound(packetDropped)
attr title "packets dropped (wrong port), count"
vector 53 singleMecHost.ue[1].udp droppedPkBadChecksum:vector(count) ETV
attr interpolationmode none
attr recordingmode vector(count)
attr source packetDropReasonIsIncorrectlyReceived(packetDropped)
attr title "packets dropped (checksum error), count"
vector 54 singleMecHost.ue[2].udp passedUpPk:vector(count) ETV
attr interpolationmode none
attr recordingmode vector(count)
attr source packetSentToUpper
attr title "packets passed up, count"
vector 55 singleMecHost.ue[2].udp droppedPkWrongPort:vector(count) ETV
attr interpolationmode none
attr recordingmode vector(count)
attr source packetDropReasonIsNoPortFound(packetDropped)
attr title "packets dropped (wrong port), count"
vector 56 singleMecHost.ue[2].udp droppedPkBadChecksum:vector(count) ETV
attr interpolationmode none
attr recordingmode vector(count)
attr source packetDropReasonIsIncorrectlyReceived(packetDropped)
attr title "packets dropped (checksum error), count"
vector 57 singleMecHost.mecHost1.virtualisationInfrastructure.pppIf[0].queue queueLength:vector ETV
attr autoWarmupFilter false
attr interpolationmode sample-hold
attr recordingmode vector
attr source "warmup(atomic(constant0(packetPushEnded) + count(packetPushStarted) - count(packetPulled) - count(packetRemoved) - count(packetDropped)))"
attr title "queue length"
attr unit pk
vector 58 singleMecHost.mecHost1.virtualisationInfrastructure.pppIf[0].queue queueBitLength:vector ETV
attr autoWarmupFilter false
attr interpolationmode sample-hold
attr recordingmode vector
attr source "warmup(atomic(constant0(packetPushEnded) + sum(packetLength(packetPushStarted)) - sum(packetLength(packetPulled)) - sum(packetLength(packetRemoved)) - sum(packetLength(packetDropped))))"
attr title "queue bit length"
attr unit b
vector 59 singleMecHost.mecHost1.virtualisationInfrastructure.pppIf[0].ppp transmissionState:vector ETV
attr interpolationmode sample-hold
attr recordingmode vector
attr source transmissionStateChanged
attr title "tx state"
vector 60 singleMecHost.mecHost1.virtualisationInfrastructure.udp passedUpPk:vector(count) ETV
attr interpolationmode none
attr recordingmode vector(count)
attr source packetSentToUpper
attr title "packets passed up, count"
vector 61 singleMecHost.mecHost1.virtualisationInfrastructure.udp droppedPkWrongPort:vector(count) ETV
attr interpolationmode none
attr recordingmode vector(count)
attr source packetDropReasonIsNoPortFound(packetDropped)
attr title "packets dropped (wrong port), count"
vector 62 singleMecHost.mecHost1.virtualisationInfrastructure.udp droppedPkBadChecksum:vector(count) ETV
attr interpolationmode none
attr recordingmode vector(count)
attr source packetDropReasonIsIncorrectlyReceived(packetDropped)
attr title "packets dropped (checksum error), count"
vector 63 singleMecHost.mecHost1.upf_mec.ppp[0].queue queueLength:vector ETV
attr autoWarmupFilter false
attr interpolationmode sample-hold
attr recordingmode vector
attr source "warmup(atomic(constant0(packetPushEnded) + count(packetPushStarted) - count(packetPulled) - count(packetRemoved) - count(packetDropped)))"
attr title "queue length"
attr unit pk
vector 64 singleMecHost.mecHost1.upf_mec.ppp[0].queue queueBitLength:vector ETV
attr autoWarmupFilter false
attr interpolationmode sample-hold
attr recordingmode vector
attr source "warmup(atomic(constant0(packetPushEnded) + sum(packetLength(packetPushStarted)) - sum(packetLength(packetPulled)) - sum(packetLength(packetRemoved)) - sum(packetLength(packetDropped))))"
attr title "queue bit length"
attr unit b
vector 65 singleMecHost.mecHost1.upf_mec.ppp[0].ppp transmissionState:vector ETV
attr interpolationmode sample-hold
attr recordingmode vector
attr source transmissionStateChanged
attr title "tx state"
vector 66 singleMecHost.mecHost1.upf_mec.pppIf.queue queueLength:vector ETV
attr autoWarmupFilter false
attr interpolationmode sample-hold
attr recordingmode vector
attr source "warmup(atomic(constant0(packetPushEnded) + count(packetPushStarted) - count(packetPulled) - count(packetRemoved) - count(packetDropped)))"
attr title "queue length"
attr unit pk
vector 67 singleMecHost.mecHost1.upf_mec.pppIf.queue queueBitLength:vector ETV
attr autoWarmupFilter false
attr interpolationmode sample-hold
attr recordingmode vector
attr source "warmup(atomic(constant0(packetPushEnded) + sum(packetLength(packetPushStarted)) - sum(packetLength(packetPulled)) - sum(packetLength(packetRemoved)) - sum(packetLength(packetDropped))))"
attr title "queue bit length"
attr unit b
vector 68 singleMecHost.mecHost1.upf_mec.pppIf.ppp transmissionState:vector ETV
attr interpolationmode sample-hold
attr recordingmode vector
attr source transmissionStateChanged
attr title "tx state"
vector 69 singleMecHost.mecHost1.upf_mec.udp passedUpPk:vector(count) ETV
attr interpolationmode none
attr recordingmode vector(count)
attr source packetSentToUpper
attr title "packets passed up, count"
vector 70 singleMecHost.mecHost1.upf_mec.udp droppedPkWrongPort:vector(count) ETV
attr interpolationmode none
attr recordingmode vector(count)
attr source packetDropReasonIsNoPortFound(packetDropped)
attr title "packets dropped (wrong port), count"
vector 71 singleMecHost.mecHost1.upf_mec.udp droppedPkBadChecksum:vector(count) ETV
attr interpolationmode none
attr recordingmode vector(count)
attr source packetDropReasonIsIncorrectlyReceived(packetDropped)
attr title "packets dropped (checksum error), count"
vector 72 singleMecHost.router1.ppp[0].queue queueLength:vector ETV
attr autoWarmupFilter false
attr interpolationmode sample-hold
attr recordingmode vector
attr source "warmup(atomic(constant0(packetPushEnded) + count(packetPushStarted) - count(packetPulled) - count(packetRemoved) - count(packetDropped)))"
attr title "queue length"
attr unit pk
vector 73 singleMecHost.router1.ppp[0].queue queueBitLength:vector ETV
attr autoWarmupFilter false
attr interpolationmode sample-hold
attr recordingmode vector
attr source "warmup(atomic(constant0(packetPushEnded) + sum(packetLength(packetPushStarted)) - sum(packetLength(packetPulled)) - sum(packetLength(packetRemoved)) - sum(packetLength(packetDropped))))"
attr title "queue bit length"
attr unit b
vector 74 singleMecHost.router1.ppp[0].ppp transmissionState:vector ETV
attr interpolationmode sample-hold
attr recordingmode vector
attr source transmissionStateChanged
attr title "tx state"
vector 75 singleMecHost.router1.ppp[1].queue queueLength:vector ETV
attr autoWarmupFilter false
attr interpolationmode sample-hold
attr recordingmode vector
attr source "warmup(atomic(constant0(packetPushEnded) + count(packetPushStarted) - count(packetPulled) - count(packetRemoved) - count(packetDropped)))"
attr title "queue length"
attr unit pk
vector 76 singleMecHost.router1.ppp[1].queue queueBitLength:vector ETV
attr autoWarmupFilter false
attr interpolationmode sample-hold
attr recordingmode vector
attr source "warmup(atomic(constant0(packetPushEnded) + sum(packetLength(packetPushStarted)) - sum(packetLength(packetPulled)) - sum(packetLength(packetRemoved)) - sum(packetLength(packetDropped))))"
attr title "queue bit length"
attr unit b
vector 77 singleMecHost.router1.ppp[1].ppp transmissionState:vector ETV
attr interpolationmode sample-hold
attr recordingmode vector
attr source transmissionStateChanged
attr title "tx state"
vector 78 singleMecHost.router1.ppp[2].queue queueLength:vector ETV
attr autoWarmupFilter false
attr interpolationmode sample-hold
attr recordingmode vector
attr source "warmup(atomic(constant0(packetPushEnded) + count(packetPushStarted) - count(packetPulled) - count(packetRemoved) - count(packetDropped)))"
attr title "queue length"
attr unit pk
vector 79 singleMecHost.router1.ppp[2].queue queueBitLength:vector ETV
attr autoWarmupFilter false
attr interpolationmode sample-hold
attr recordingmode vector
attr source "warmup(atomic(constant0(packetPushEnded) + sum(packetLength(packetPushStarted)) - sum(packetLength(packetPulled)) - sum(packetLength(packetRemoved)) - sum(packetLength(packetDropped))))"
attr title "queue bit length"
attr unit b
vector 80 singleMecHost.router1.ppp[2].ppp transmissionState:vector ETV
attr interpolationmode sample-hold
attr recordingmode vector
attr source transmissionStateChanged
attr title "tx state"
vector 81 singleMecHost.router2.ppp[0].queue queueLength:vector ETV
attr autoWarmupFilter false
attr interpolationmode sample-hold
attr recordingmode vector
attr source "warmup(atomic(constant0(packetPushEnded) + count(packetPushStarted) - count(packetPulled) - count(packetRemoved) - count(packetDropped)))"
attr title "queue length"
attr unit pk
vector 82 singleMecHost.router2.ppp[0].queue queueBitLength:vector ETV
attr autoWarmupFilter false
attr interpolationmode sample-hold
attr recordingmode vector
attr source "warmup(atomic(constant0(packetPushEnded) + sum(packetLength(packetPushStarted)) - sum(packetLength(packetPulled)) - sum(packetLength(packetRemoved)) - sum(packetLength(packetDropped))))"
attr title "queue bit length"
attr unit b
vector 83 singleMecHost.router2.ppp[0].ppp transmissionState:vector ETV
attr interpolationmode sample-hold
attr recordingmode vector
attr source transmissionStateChanged
attr title "tx state"
vector 84 singleMecHost.router2.ppp[1].queue queueLength:vector ETV
attr autoWarmupFilter false
attr interpolationmode sample-hold
attr recordingmode vector
attr source "warmup(atomic(constant0(packetPushEnded) + count(packetPushStarted) - count(packetPulled) - count(packetRemoved) - count(packetDropped)))"
attr title "queue length"
attr unit pk
vector 85 singleMecHost.router2.ppp[1].queue queueBitLength:vector ETV
attr autoWarmupFilter false
attr interpolationmode sample-hold
attr recordingmode vector
attr source "warmup(atomic(constant0(packetPushEnded) + sum(packetLength(packetPushStarted)) - sum(packetLength(packetPulled)) - sum(packetLength(packetRemoved)) - sum(packetLength(packetDropped))))"
attr title "queue bit length"
attr unit b
vector 86 singleMecHost.router2.ppp[1].ppp transmissionState:vector ETV
attr interpolationmode sample-hold
attr recordingmode vector
attr source transmissionStateChanged
attr title "tx state"
vector 87 singleMecHost.router2.ppp[2].queue queueLength:vector ETV
attr autoWarmupFilter false
attr interpolationmode sample-hold
attr recordingmode vector
attr source "warmup(atomic(constant0(packetPushEnded) + count(packetPushStarted) - count(packetPulled) - count(packetRemoved) - count(packetDropped)))"
attr title "queue length"
attr unit pk
vector 88 singleMecHost.router2.ppp[2].queue queueBitLength:vector ETV
attr autoWarmupFilter false
attr interpolationmode sample-hold
attr recordingmode vector
attr source "warmup(atomic(constant0(packetPushEnded) + sum(packetLength(packetPushStarted)) - sum(packetLength(packetPulled)) - sum(packetLength(packetRemoved)) - sum(packetLength(packetDropped))))"
attr title "queue bit length"
attr unit b
vector 89 singleMecHost.router2.ppp[2].ppp transmissionState:vector ETV
attr interpolationmode sample-hold
attr recordingmode vector
attr source transmissionStateChanged
attr title "tx state"
vector 90 singleMecHost.router3.ppp[0].queue queueLength:vector ETV
attr autoWarmupFilter false
attr interpolationmode sample-hold
attr recordingmode vector
attr source "warmup(atomic(constant0(packetPushEnded) + count(packetPushStarted) - count(packetPulled) - count(packetRemoved) - count(packetDropped)))"
attr title "queue length"
attr unit pk
vector 91 singleMecHost.router3.ppp[0].queue queueBitLength:vector ETV
attr autoWarmupFilter false
attr interpolationmode sample-hold
attr recordingmode vector
attr source "warmup(atomic(constant0(packetPushEnded) + sum(packetLength(packetPushStarted)) - sum(packetLength(packetPulled)) - sum(packetLength(packetRemoved)) - sum(packetLength(packetDropped))))"
attr title "queue bit length"
attr unit b
vector 92 singleMecHost.router3.ppp[0].ppp transmissionState:vector ETV
attr interpolationmode sample-hold
attr recordingmode vector
attr source transmissionStateChanged
attr title "tx state"
vector 93 singleMecHost.router3.ppp[1].queue queueLength:vector ETV
attr autoWarmupFilter false
attr interpolationmode sample-hold
attr recordingmode vector
attr source "warmup(atomic(constant0(packetPushEnded) + count(packetPushStarted) - count(packetPulled) - count(packetRemoved) - count(packetDropped)))"
attr title "queue length"
attr unit pk
vector 94 singleMecHost.router3.ppp[1].queue queueBitLength:vector ETV
attr autoWarmupFilter false
attr interpolationmode sample-hold
attr recordingmode vector
attr source "warmup(atomic(constant0(packetPushEnded) + sum(packetLength(packetPushStarted)) - sum(packetLength(packetPulled)) - sum(packetLength(packetRemoved)) - sum(packetLength(packetDropped))))"
attr title "queue bit length"
attr unit b
vector 95 singleMecHost.router3.ppp[1].ppp transmissionState:vector ETV
attr interpolationmode sample-hold
attr recordingmode vector
attr source transmissionStateChanged
attr title "tx state"
vector 96 singleMecHost.router3.ppp[2].queue queueLength:vector ETV
attr autoWarmupFilter false
attr interpolationmode sample-hold
attr recordingmode vector
attr source "warmup(atomic(constant0(packetPushEnded) + count(packetPushStarted) - count(packetPulled) - count(packetRemoved) - count(packetDropped)))"
attr title "queue length"
attr unit pk
vector 97 singleMecHost.router3.ppp[2].queue queueBitLength:vector ETV
attr autoWarmupFilter false
attr interpolationmode sample-hold
attr recordingmode vector
attr source "warmup(atomic(constant0(packetPushEnded) + sum(packetLength(packetPushStarted)) - sum(packetLength(packetPulled)) - sum(packetLength(packetRemoved)) - sum(packetLength(packetDropped))))"
attr title "queue bit length"
attr unit b
vector 98 singleMecHost.router3.ppp[2].ppp transmissionState:vector ETV
attr interpolationmode sample-hold
attr recordingmode vector
attr source transmissionStateChanged
attr title "tx state"
vector 99 singleMecHost.router4.ppp[0].queue queueLength:vector ETV
attr autoWarmupFilter false
attr interpolationmode sample-hold
attr recordingmode vector
attr source "warmup(atomic(constant0(packetPushEnded) + count(packetPushStarted) - count(packetPulled) - count(packetRemoved) - count(packetDropped)))"
attr title "queue length"
attr unit pk
vector 100 singleMecHost.router4.ppp[0].queue queueBitLength:vector ETV
attr autoWarmupFilter false
attr interpolationmode sample-hold
attr recordingmode vector
attr source "warmup(atomic(constant0(packetPushEnded) + sum(packetLength(packetPushStarted)) - sum(packetLength(packetPulled)) - sum(packetLength(packetRemoved)) - sum(packetLength(packetDropped))))"
attr title "queue bit length"
attr unit b
vector 101 singleMecHost.router4.ppp[0].ppp transmissionState:vector ETV
attr interpolationmode sample-hold
attr recordingmode vector
attr source transmissionStateChanged
attr title "tx state"
vector 102 singleMecHost.router4.ppp[1].queue queueLength:vector ETV
attr autoWarmupFilter false
attr interpolationmode sample-hold
attr recordingmode vector
attr source "warmup(atomic(constant0(packetPushEnded) + count(packetPushStarted) - count(packetPulled) - count(packetRemoved) - count(packetDropped)))"
attr title "queue length"
attr unit pk
vector 103 singleMecHost.router4.ppp[1].queue queueBitLength:vector ETV
attr autoWarmupFilter false
attr interpolationmode sample-hold
attr recordingmode vector
attr source "warmup(atomic(constant0(packetPushEnded) + sum(packetLength(packetPushStarted)) - sum(packetLength(packetPulled)) - sum(packetLength(packetRemoved)) - sum(packetLength(packetDropped))))"
attr title "queue bit length"
attr unit b
vector 104 singleMecHost.router4.ppp[1].ppp transmissionState:vector ETV
attr interpolationmode sample-hold
attr recordingmode vector
attr source transmissionStateChanged
attr title "tx state"
vector 105 singleMecHost.router4.ppp[2].queue queueLength:vector ETV
attr autoWarmupFilter false
attr interpolationmode sample-hold
attr recordingmode vector
attr source "warmup(atomic(constant0(packetPushEnded) + count(packetPushStarted) - count(packetPulled) - count(packetRemoved) - count(packetDropped)))"
attr title "queue length"
attr unit pk
vector 106 singleMecHost.router4.ppp[2].queue queueBitLength:vector ETV
attr autoWarmupFilter false
attr interpolationmode sample-hold
attr recordingmode vector
attr source "warmup(atomic(constant0(packetPushEnded) + sum(packetLength(packetPushStarted)) - sum(packetLength(packetPulled)) - sum(packetLength(packetRemoved)) - sum(packetLength(packetDropped))))"
attr title "queue bit length"
attr unit b
vector 107 singleMecHost.router4.ppp[2].ppp transmissionState:vector ETV
attr interpolationmode sample-hold
attr recordingmode vector
attr source transmissionStateChanged
attr title "tx state"
vector 108 singleMecHost.router4.ppp[3].queue queueLength:vector ETV
attr autoWarmupFilter false
attr interpolationmode sample-hold
attr recordingmode vector
attr source "warmup(atomic(constant0(packetPushEnded) + count(packetPushStarted) - count(packetPulled) - count(packetRemoved) - count(packetDropped)))"
attr title "queue length"
attr unit pk
vector 109 singleMecHost.router4.ppp[3].queue queueBitLength:vector ETV
attr autoWarmupFilter false
attr interpolationmode sample-hold
attr recordingmode vector
attr source "warmup(atomic(constant0(packetPushEnded) + sum(packetLength(packetPushStarted)) - sum(packetLength(packetPulled)) - sum(packetLength(packetRemoved)) - sum(packetLength(packetDropped))))"
attr title "queue bit length"
attr unit b
vector 110 singleMecHost.router4.ppp[3].ppp transmissionState:vector ETV
attr interpolationmode sample-hold
attr recordingmode vector
attr source transmissionStateChanged
attr title "tx state"
vector 111 singleMecHost.router5.ppp[0].queue queueLength:vector ETV
attr autoWarmupFilter false
attr interpolationmode sample-hold
attr recordingmode vector
attr source "warmup(atomic(constant0(packetPushEnded) + count(packetPushStarted) - count(packetPulled) - count(packetRemoved) - count(packetDropped)))"
attr title "queue length"
attr unit pk
vector 112 singleMecHost.router5.ppp[0].queue queueBitLength:vector ETV
attr autoWarmupFilter false
attr interpolationmode sample-hold
attr recordingmode vector
attr source "warmup(atomic(constant0(packetPushEnded) + sum(packetLength(packetPushStarted)) - sum(packetLength(packetPulled)) - sum(packetLength(packetRemoved)) - sum(packetLength(packetDropped))))"
attr title "queue bit length"
attr unit b
vector 113 singleMecHost.router5.ppp[0].ppp transmissionState:vector ETV
attr interpolationmode sample-hold
attr recordingmode vector
attr source transmissionStateChanged
attr title "tx state"
vector 114 singleMecHost.router5.ppp[1].queue queueLength:vector ETV
attr autoWarmupFilter false
attr interpolationmode sample-hold
attr recordingmode vector
attr source "warmup(atomic(constant0(packetPushEnded) + count(packetPushStarted) - count(packetPulled) - count(packetRemoved) - count(packetDropped)))"
attr title "queue length"
attr unit pk
vector 115 singleMecHost.router5.ppp[1].queue queueBitLength:vector ETV
attr autoWarmupFilter false
attr interpolationmode sample-hold
attr recordingmode vector
attr source "warmup(atomic(constant0(packetPushEnded) + sum(packetLength(packetPushStarted)) - sum(packetLength(packetPulled)) - sum(packetLength(packetRemoved)) - sum(packetLength(packetDropped))))"
attr title "queue bit length"
attr unit b
vector 116 singleMecHost.router5.ppp[1].ppp transmissionState:vector ETV
attr interpolationmode sample-hold
attr recordingmode vector
attr source transmissionStateChanged
attr title "tx state"
vector 117 singleMecHost.router5.ppp[2].queue queueLength:vector ETV
attr autoWarmupFilter false
attr interpolationmode sample-hold
attr recordingmode vector
attr source "warmup(atomic(constant0(packetPushEnded) + count(packetPushStarted) - count(packetPulled) - count(packetRemoved) - count(packetDropped)))"
attr title "queue length"
attr unit pk
vector 118 singleMecHost.router5.ppp[2].queue queueBitLength:vector ETV
attr autoWarmupFilter false
attr interpolationmode sample-hold
attr recordingmode vector
attr source "warmup(atomic(constant0(packetPushEnded) + sum(packetLength(packetPushStarted)) - sum(packetLength(packetPulled)) - sum(packetLength(packetRemoved)) - sum(packetLength(packetDropped))))"
attr title "queue bit length"
attr unit b
vector 119 singleMecHost.router5.ppp[2].ppp transmissionState:vector ETV
attr interpolationmode sample-hold
attr recordingmode vector
attr source transmissionStateChanged
attr title "tx state"
vector 120 singleMecHost.router5.ppp[3].queue queueLength:vector ETV
attr autoWarmupFilter false
attr interpolationmode sample-hold
attr recordingmode vector
attr source "warmup(atomic(constant0(packetPushEnded) + count(packetPushStarted) - count(packetPulled) - count(packetRemoved) - count(packetDropped)))"
attr title "queue length"
attr unit pk
vector 121 singleMecHost.router5.ppp[3].queue queueBitLength:vector ETV
attr autoWarmupFilter false
attr interpolationmode sample-hold
attr recordingmode vector
attr source "warmup(atomic(constant0(packetPushEnded) + sum(packetLength(packetPushStarted)) - sum(packetLength(packetPulled)) - sum(packetLength(packetRemoved)) - sum(packetLength(packetDropped))))"
attr title "queue bit length"
attr unit b
vector 122 singleMecHost.router5.ppp[3].ppp transmissionState:vector ETV
attr interpolationmode sample-hold
attr recordingmode vector
attr source transmissionStateChanged
attr title "tx state"
vector 123 singleMecHost.router6.ppp[0].queue queueLength:vector ETV
attr autoWarmupFilter false
attr interpolationmode sample-hold
attr recordingmode vector
attr source "warmup(atomic(constant0(packetPushEnded) + count(packetPushStarted) - count(packetPulled) - count(packetRemoved) - count(packetDropped)))"
attr title "queue length"
attr unit pk
vector 124 singleMecHost.router6.ppp[0].queue queueBitLength:vector ETV
attr autoWarmupFilter false
attr interpolationmode sample-hold
attr recordingmode vector
attr source "warmup(atomic(constant0(packetPushEnded) + sum(packetLength(packetPushStarted)) - sum(packetLength(packetPulled)) - sum(packetLength(packetRemoved)) - sum(packetLength(packetDropped))))"
attr title "queue bit length"
attr unit b
vector 125 singleMecHost.router6.ppp[0].ppp transmissionState:vector ETV
attr interpolationmode sample-hold
attr recordingmode vector
attr source transmissionStateChanged
attr title "tx state"
vector 126 singleMecHost.router6.ppp[1].queue queueLength:vector ETV
attr autoWarmupFilter false
attr interpolationmode sample-hold
attr recordingmode vector
attr source "warmup(atomic(constant0(packetPushEnded) + count(packetPushStarted) - count(packetPulled) - count(packetRemoved) - count(packetDropped)))"
attr title "queue length"
attr unit pk
vector 127 singleMecHost.router6.ppp[1].queue queueBitLength:vector ETV
attr autoWarmupFilter false
attr interpolationmode sample-hold
attr recordingmode vector
attr source "warmup(atomic(constant0(packetPushEnded) + sum(packetLength(packetPushStarted)) - sum(packetLength(packetPulled)) - sum(packetLength(packetRemoved)) - sum(packetLength(packetDropped))))"
attr title "queue bit length"
attr unit b
vector 128 singleMecHost.router6.ppp[1].ppp transmissionState:vector ETV
attr interpolationmode sample-hold
attr recordingmode vector
attr source transmissionStateChanged
attr title "tx state"
vector 129 singleMecHost.router6.ppp[2].queue queueLength:vector ETV
attr autoWarmupFilter false
attr interpolationmode sample-hold
attr recordingmode vector
attr source "warmup(atomic(constant0(packetPushEnded) + count(packetPushStarted) - count(packetPulled) - count(packetRemoved) - count(packetDropped)))"
attr title "queue length"
attr unit pk
vector 130 singleMecHost.router6.ppp[2].queue queueBitLength:vector ETV
attr autoWarmupFilter false
attr interpolationmode sample-hold
attr recordingmode vector
attr source "warmup(atomic(constant0(packetPushEnded) + sum(packetLength(packetPushStarted)) - sum(packetLength(packetPulled)) - sum(packetLength(packetRemoved)) - sum(packetLength(packetDropped))))"
attr title "queue bit length"
attr unit b
vector 131 singleMecHost.router6.ppp[2].ppp transmissionState:vector ETV
attr interpolationmode sample-hold
attr recordingmode vector
attr source transmissionStateChanged
attr title "tx state"
vector 132 singleMecHost.router7.ppp[0].queue queueLength:vector ETV
attr autoWarmupFilter false
attr interpolationmode sample-hold
attr recordingmode vector
attr source "warmup(atomic(constant0(packetPushEnded) + count(packetPushStarted) - count(packetPulled) - count(packetRemoved) - count(packetDropped)))"
attr title "queue length"
attr unit pk
vector 133 singleMecHost.router7.ppp[0].queue queueBitLength:vector ETV
attr autoWarmupFilter false
attr interpolationmode sample-hold
attr recordingmode vector
attr source "warmup(atomic(constant0(packetPushEnded) + sum(packetLength(packetPushStarted)) - sum(packetLength(packetPulled)) - sum(packetLength(packetRemoved)) - sum(packetLength(packetDropped))))"
attr title "queue bit length"
attr unit b
vector 134 singleMecHost.router7.ppp[0].ppp transmissionState:vector ETV
attr interpolationmode sample-hold
attr recordingmode vector
attr source transmissionStateChanged
attr title "tx state"
vector 135 singleMecHost.router7.ppp[1].queue queueLength:vector ETV
attr autoWarmupFilter false
attr interpolationmode sample-hold
attr recordingmode vector
attr source "warmup(atomic(constant0(packetPushEnded) + count(packetPushStarted) - count(packetPulled) - count(packetRemoved) - count(packetDropped)))"
attr title "queue length"
attr unit pk
vector 136 singleMecHost.router7.ppp[1].queue queueBitLength:vector ETV
attr autoWarmupFilter false
attr interpolationmode sample-hold
attr recordingmode vector
attr source "warmup(atomic(constant0(packetPushEnded) + sum(packetLength(packetPushStarted)) - sum(packetLength(packetPulled)) - sum(packetLength(packetRemoved)) - sum(packetLength(packetDropped))))"
attr title "queue bit length"
attr unit b
vector 137 singleMecHost.router7.ppp[1].ppp transmissionState:vector ETV
attr interpolationmode sample-hold
attr recordingmode vector
attr source transmissionStateChanged
attr title "tx state"
vector 138 singleMecHost.router7.ppp[2].queue queueLength:vector ETV
attr autoWarmupFilter false
attr interpolationmode sample-hold
attr recordingmode vector
attr source "warmup(atomic(constant0(packetPushEnded) + count(packetPushStarted) - count(packetPulled) - count(packetRemoved) - count(packetDropped)))"
attr title "queue length"
attr unit pk
vector 139 singleMecHost.router7.ppp[2].queue queueBitLength:vector ETV
attr autoWarmupFilter false
attr interpolationmode sample-hold
attr recordingmode vector
attr source "warmup(atomic(constant0(packetPushEnded) + sum(packetLength(packetPushStarted)) - sum(packetLength(packetPulled)) - sum(packetLength(packetRemoved)) - sum(packetLength(packetDropped))))"
attr title "queue bit length"
attr unit b
vector 140 singleMecHost.router7.ppp[2].ppp transmissionState:vector ETV
attr interpolationmode sample-hold
attr recordingmode vector
attr source transmissionStateChanged
attr title "tx state"
vector 141 singleMecHost.router8.ppp[0].queue queueLength:vector ETV
attr autoWarmupFilter false
attr interpolationmode sample-hold
attr recordingmode vector
attr source "warmup(atomic(constant0(packetPushEnded) + count(packetPushStarted) - count(packetPulled) - count(packetRemoved) - count(packetDropped)))"
attr title "queue length"
attr unit pk
vector 142 singleMecHost.router8.ppp[0].queue queueBitLength:vector ETV
attr autoWarmupFilter false
attr interpolationmode sample-hold
attr recordingmode vector
attr source "warmup(atomic(constant0(packetPushEnded) + sum(packetLength(packetPushStarted)) - sum(packetLength(packetPulled)) - sum(packetLength(packetRemoved)) - sum(packetLength(packetDropped))))"
attr title "queue bit length"
attr unit b
vector 143 singleMecHost.router8.ppp[0].ppp transmissionState:vector ETV
attr interpolationmode sample-hold
attr recordingmode vector
attr source transmissionStateChanged
attr title "tx state"
vector 144 singleMecHost.router8.ppp[1].queue queueLength:vector ETV
attr autoWarmupFilter false
attr interpolationmode sample-hold
attr recordingmode vector
attr source "warmup(atomic(constant0(packetPushEnded) + count(packetPushStarted) - count(packetPulled) - count(packetRemoved) - count(packetDropped)))"
attr title "queue length"
attr unit pk
vector 145 singleMecHost.router8.ppp[1].queue queueBitLength:vector ETV
attr autoWarmupFilter false
attr interpolationmode sample-hold
attr recordingmode vector
attr source "warmup(atomic(constant0(packetPushEnded) + sum(packetLength(packetPushStarted)) - sum(packetLength(packetPulled)) - sum(packetLength(packetRemoved)) - sum(packetLength(packetDropped))))"
attr title "queue bit length"
attr unit b
vector 146 singleMecHost.router8.ppp[1].ppp transmissionState:vector ETV
attr interpolationmode sample-hold
attr recordingmode vector
attr source transmissionStateChanged
attr title "tx state"
vector 147 singleMecHost.router8.ppp[2].queue queueLength:vector ETV
attr autoWarmupFilter false
attr interpolationmode sample-hold
attr recordingmode vector
attr source "warmup(atomic(constant0(packetPushEnded) + count(packetPushStarted) - count(packetPulled) - count(packetRemoved) - count(packetDropped)))"
attr title "queue length"
attr unit pk
vector 148 singleMecHost.router8.ppp[2].queue queueBitLength:vector ETV
attr autoWarmupFilter false
attr interpolationmode sample-hold
attr recordingmode vector
attr source "warmup(atomic(constant0(packetPushEnded) + sum(packetLength(packetPushStarted)) - sum(packetLength(packetPulled)) - sum(packetLength(packetRemoved)) - sum(packetLength(packetDropped))))"
attr title "queue bit length"
attr unit b
vector 149 singleMecHost.router8.ppp[2].ppp transmissionState:vector ETV
attr interpolationmode sample-hold
attr recordingmode vector
attr source transmissionStateChanged
attr title "tx state"
vector 150 singleMecHost.mecHost2.virtualisationInfrastructure.pppIf[0].queue queueLength:vector ETV
attr autoWarmupFilter false
attr interpolationmode sample-hold
attr recordingmode vector
attr source "warmup(atomic(constant0(packetPushEnded) + count(packetPushStarted) - count(packetPulled) - count(packetRemoved) - count(packetDropped)))"
attr title "queue length"
attr unit pk
vector 151 singleMecHost.mecHost2.virtualisationInfrastructure.pppIf[0].queue queueBitLength:vector ETV
attr autoWarmupFilter false
attr interpolationmode sample-hold
attr recordingmode vector
attr source "warmup(atomic(constant0(packetPushEnded) + sum(packetLength(packetPushStarted)) - sum(packetLength(packetPulled)) - sum(packetLength(packetRemoved)) - sum(packetLength(packetDropped))))"
attr title "queue bit length"
attr unit b
vector 152 singleMecHost.mecHost2.virtualisationInfrastructure.pppIf[0].ppp transmissionState:vector ETV
attr interpolationmode sample-hold
attr recordingmode vector
attr source transmissionStateChanged
attr title "tx state"
vector 153 singleMecHost.mecHost2.virtualisationInfrastructure.udp passedUpPk:vector(count) ETV
attr interpolationmode none
attr recordingmode vector(count)
attr source packetSentToUpper
attr title "packets passed up, count"
vector 154 singleMecHost.mecHost2.virtualisationInfrastructure.udp droppedPkWrongPort:vector(count) ETV
attr interpolationmode none
attr recordingmode vector(count)
attr source packetDropReasonIsNoPortFound(packetDropped)
attr title "packets dropped (wrong port), count"
vector 155 singleMecHost.mecHost2.virtualisationInfrastructure.udp droppedPkBadChecksum:vector(count) ETV
attr interpolationmode none
attr recordingmode vector(count)
attr source packetDropReasonIsIncorrectlyReceived(packetDropped)
attr title "packets dropped (checksum error), count"
vector 156 singleMecHost.mecHost2.upf_mec.ppp[0].queue queueLength:vector ETV
attr autoWarmupFilter false
attr interpolationmode sample-hold
attr recordingmode vector
attr source "warmup(atomic(constant0(packetPushEnded) + count(packetPushStarted) - count(packetPulled) - count(packetRemoved) - count(packetDropped)))"
attr title "queue length"
attr unit pk
vector 157 singleMecHost.mecHost2.upf_mec.ppp[0].queue queueBitLength:vector ETV
attr autoWarmupFilter false
attr interpolationmode sample-hold
attr recordingmode vector
attr source "warmup(atomic(constant0(packetPushEnded) + sum(packetLength(packetPushStarted)) - sum(packetLength(packetPulled)) - sum(packetLength(packetRemoved)) - sum(packetLength(packetDropped))))"
attr title "queue bit length"
attr unit b
vector 158 singleMecHost.mecHost2.upf_mec.ppp[0].ppp transmissionState:vector ETV
attr interpolationmode sample-hold
attr recordingmode vector
attr source transmissionStateChanged
attr title "tx state"
vector 159 singleMecHost.mecHost2.upf_mec.pppIf.queue queueLength:vector ETV
attr autoWarmupFilter false
attr interpolationmode sample-hold
attr recordingmode vector
attr source "warmup(atomic(constant0(packetPushEnded) + count(packetPushStarted) - count(packetPulled) - count(packetRemoved) - count(packetDropped)))"
attr title "queue length"
attr unit pk
vector 160 singleMecHost.mecHost2.upf_mec.pppIf.queue queueBitLength:vector ETV
attr autoWarmupFilter false
attr interpolationmode sample-hold
attr recordingmode vector
attr source "warmup(atomic(constant0(packetPushEnded) + sum(packetLength(packetPushStarted)) - sum(packetLength(packetPulled)) - sum(packetLength(packetRemoved)) - sum(packetLength(packetDropped))))"
attr title "queue bit length"
attr unit b
vector 161 singleMecHost.mecHost2.upf_mec.pppIf.ppp transmissionState:vector ETV
attr interpolationmode sample-hold
attr recordingmode vector
attr source transmissionStateChanged
attr title "tx state"
vector 162 singleMecHost.mecHost2.upf_mec.udp passedUpPk:vector(count) ETV
attr interpolationmode none
attr recordingmode vector(count)
attr source packetSentToUpper
attr title "packets passed up, count"
vector 163 singleMecHost.mecHost2.upf_mec.udp droppedPkWrongPort:vector(count) ETV
attr interpolationmode none
attr recordingmode vector(count)
attr source packetDropReasonIsNoPortFound(packetDropped)
attr title "packets dropped (wrong port), count"
vector 164 singleMecHost.mecHost2.upf_mec.udp droppedPkBadChecksum:vector(count) ETV
attr interpolationmode none
attr recordingmode vector(count)
attr source packetDropReasonIsIncorrectlyReceived(packetDropped)
attr title "packets dropped (checksum error), count"
vector 165 singleMecHost.ualcmp.pppIf.queue queueLength:vector ETV
attr autoWarmupFilter false
attr interpolationmode sample-hold
attr recordingmode vector
attr source "warmup(atomic(constant0(packetPushEnded) + count(packetPushStarted) - count(packetPulled) - count(packetRemoved) - count(packetDropped)))"
attr title "queue length"
attr unit pk
vector 166 singleMecHost.ualcmp.pppIf.queue queueBitLength:vector ETV
attr autoWarmupFilter false
attr interpolationmode sample-hold
attr recordingmode vector
attr source "warmup(atomic(constant0(packetPushEnded) + sum(packetLength(packetPushStarted)) - sum(packetLength(packetPulled)) - sum(packetLength(packetRemoved)) - sum(packetLength(packetDropped))))"
attr title "queue bit length"
attr unit b
vector 167 singleMecHost.ualcmp.pppIf.ppp transmissionState:vector ETV
attr interpolationmode sample-hold
attr recordingmode vector
attr source transmissionStateChanged
attr title "tx state"
vector 168 singleMecHost.ualcmp.udp passedUpPk:vector(count) ETV
attr interpolationmode none
attr recordingmode vector(count)
attr source packetSentToUpper
attr title "packets passed up, count"
vector 169 singleMecHost.ualcmp.udp droppedPkWrongPort:vector(count) ETV
attr interpolationmode none
attr recordingmode vector(count)
attr source packetDropReasonIsNoPortFound(packetDropped)
attr title "packets dropped (wrong port), count"
vector 170 singleMecHost.ualcmp.udp droppedPkBadChecksum:vector(count) ETV
attr interpolationmode none
attr recordingmode vector(count)
attr source packetDropReasonIsIncorrectlyReceived(packetDropped)
attr title "packets dropped (checksum error), count"
vector 171 singleMecHost.coreServer1.virtualisationInfrastructure.pppIf[0].queue queueLength:vector ETV
attr autoWarmupFilter false
attr interpolationmode sample-hold
attr recordingmode vector
attr source "warmup(atomic(constant0(packetPushEnded) + count(packetPushStarted) - count(packetPulled) - count(packetRemoved) - count(packetDropped)))"
attr title "queue length"
attr unit pk
vector 172 singleMecHost.coreServer1.virtualisationInfrastructure.pppIf[0].queue queueBitLength:vector ETV
attr autoWarmupFilter false
attr interpolationmode sample-hold
attr recordingmode vector
attr source "warmup(atomic(constant0(packetPushEnded) + sum(packetLength(packetPushStarted)) - sum(packetLength(packetPulled)) - sum(packetLength(packetRemoved)) - sum(packetLength(packetDropped))))"
attr title "queue bit length"
attr unit b
vector 173 singleMecHost.coreServer1.virtualisationInfrastructure.pppIf[0].ppp transmissionState:vector ETV
attr interpolationmode sample-hold
attr recordingmode vector
attr source transmissionStateChanged
attr title "tx state"
vector 174 singleMecHost.coreServer1.virtualisationInfrastructure.udp passedUpPk:vector(count) ETV
attr interpolationmode none
attr recordingmode vector(count)
attr source packetSentToUpper
attr title "packets passed up, count"
vector 175 singleMecHost.coreServer1.virtualisationInfrastructure.udp droppedPkWrongPort:vector(count) ETV
attr interpolationmode none
attr recordingmode vector(count)
attr source packetDropReasonIsNoPortFound(packetDropped)
attr title "packets dropped (wrong port), count"
vector 176 singleMecHost.coreServer1.virtualisationInfrastructure.udp droppedPkBadChecksum:vector(count) ETV
attr interpolationmode none
attr recordingmode vector(count)
attr source packetDropReasonIsIncorrectlyReceived(packetDropped)
attr title "packets dropped (checksum error), count"
vector 177 singleMecHost.coreServer1.upf_mec.ppp[0].queue queueLength:vector ETV
attr autoWarmupFilter false
attr interpolationmode sample-hold
attr recordingmode vector
attr source "warmup(atomic(constant0(packetPushEnded) + count(packetPushStarted) - count(packetPulled) - count(packetRemoved) - count(packetDropped)))"
attr title "queue length"
attr unit pk
vector 178 singleMecHost.coreServer1.upf_mec.ppp[0].queue queueBitLength:vector ETV
attr autoWarmupFilter false
attr interpolationmode sample-hold
attr recordingmode vector
attr source "warmup(atomic(constant0(packetPushEnded) + sum(packetLength(packetPushStarted)) - sum(packetLength(packetPulled)) - sum(packetLength(packetRemoved)) - sum(packetLength(packetDropped))))"
attr title "queue bit length"
attr unit b
vector 179 singleMecHost.coreServer1.upf_mec.ppp[0].ppp transmissionState:vector ETV
attr interpolationmode sample-hold
attr recordingmode vector
attr source transmissionStateChanged
attr title "tx state"
vector 180 singleMecHost.coreServer1.upf_mec.pppIf.queue queueLength:vector ETV
attr autoWarmupFilter false
attr interpolationmode sample-hold
attr recordingmode vector
attr source "warmup(atomic(constant0(packetPushEnded) + count(packetPushStarted) - count(packetPulled) - count(packetRemoved) - count(packetDropped)))"
attr title "queue length"
attr unit pk
vector 181 singleMecHost.coreServer1.upf_mec.pppIf.queue queueBitLength:vector ETV
attr autoWarmupFilter false
attr interpolationmode sample-hold
attr recordingmode vector
attr source "warmup(atomic(constant0(packetPushEnded) + sum(packetLength(packetPushStarted)) - sum(packetLength(packetPulled)) - sum(packetLength(packetRemoved)) - sum(packetLength(packetDropped))))"
attr title "queue bit length"
attr unit b
vector 182 singleMecHost.coreServer1.upf_mec.pppIf.ppp transmissionState:vector ETV
attr interpolationmode sample-hold
attr recordingmode vector
attr source transmissionStateChanged
attr title "tx state"
vector 183 singleMecHost.coreServer1.upf_mec.udp passedUpPk:vector(count) ETV
attr interpolationmode none
attr recordingmode vector(count)
attr source packetSentToUpper
attr title "packets passed up, count"
vector 184 singleMecHost.coreServer1.upf_mec.udp droppedPkWrongPort:vector(count) ETV
attr interpolationmode none
attr recordingmode vector(count)
attr source packetDropReasonIsNoPortFound(packetDropped)
attr title "packets dropped (wrong port), count"
vector 185 singleMecHost.coreServer1.upf_mec.udp droppedPkBadChecksum:vector(count) ETV
attr interpolationmode none
attr recordingmode vector(count)
attr source packetDropReasonIsIncorrectlyReceived(packetDropped)
attr title "packets dropped (checksum error), count"
vector 186 singleMecHost.coreServer2.virtualisationInfrastructure.pppIf[0].queue queueLength:vector ETV
attr autoWarmupFilter false
attr interpolationmode sample-hold
attr recordingmode vector
attr source "warmup(atomic(constant0(packetPushEnded) + count(packetPushStarted) - count(packetPulled) - count(packetRemoved) - count(packetDropped)))"
attr title "queue length"
attr unit pk
vector 187 singleMecHost.coreServer2.virtualisationInfrastructure.pppIf[0].queue queueBitLength:vector ETV
attr autoWarmupFilter false
attr interpolationmode sample-hold
attr recordingmode vector
attr source "warmup(atomic(constant0(packetPushEnded) + sum(packetLength(packetPushStarted)) - sum(packetLength(packetPulled)) - sum(packetLength(packetRemoved)) - sum(packetLength(packetDropped))))"
attr title "queue bit length"
attr unit b
vector 188 singleMecHost.coreServer2.virtualisationInfrastructure.pppIf[0].ppp transmissionState:vector ETV
attr interpolationmode sample-hold
attr recordingmode vector
attr source transmissionStateChanged
attr title "tx state"
vector 189 singleMecHost.coreServer2.virtualisationInfrastructure.udp passedUpPk:vector(count) ETV
attr interpolationmode none
attr recordingmode vector(count)
attr source packetSentToUpper
attr title "packets passed up, count"
vector 190 singleMecHost.coreServer2.virtualisationInfrastructure.udp droppedPkWrongPort:vector(count) ETV
attr interpolationmode none
attr recordingmode vector(count)
attr source packetDropReasonIsNoPortFound(packetDropped)
attr title "packets dropped (wrong port), count"
vector 191 singleMecHost.coreServer2.virtualisationInfrastructure.udp droppedPkBadChecksum:vector(count) ETV
attr interpolationmode none
attr recordingmode vector(count)
attr source packetDropReasonIsIncorrectlyReceived(packetDropped)
attr title "packets dropped (checksum error), count"
vector 192 singleMecHost.coreServer2.upf_mec.ppp[0].queue queueLength:vector ETV
attr autoWarmupFilter false
attr interpolationmode sample-hold
attr recordingmode vector
attr source "warmup(atomic(constant0(packetPushEnded) + count(packetPushStarted) - count(packetPulled) - count(packetRemoved) - count(packetDropped)))"
attr title "queue length"
attr unit pk
vector 193 singleMecHost.coreServer2.upf_mec.ppp[0].queue queueBitLength:vector ETV
attr autoWarmupFilter false
attr interpolationmode sample-hold
attr recordingmode vector
attr source "warmup(atomic(constant0(packetPushEnded) + sum(packetLength(packetPushStarted)) - sum(packetLength(packetPulled)) - sum(packetLength(packetRemoved)) - sum(packetLength(packetDropped))))"
attr title "queue bit length"
attr unit b
vector 194 singleMecHost.coreServer2.upf_mec.ppp[0].ppp transmissionState:vector ETV
attr interpolationmode sample-hold
attr recordingmode vector
attr source transmissionStateChanged
attr title "tx state"
vector 195 singleMecHost.coreServer2.upf_mec.pppIf.queue queueLength:vector ETV
attr autoWarmupFilter false
attr interpolationmode sample-hold
attr recordingmode vector
attr source "warmup(atomic(constant0(packetPushEnded) + count(packetPushStarted) - count(packetPulled) - count(packetRemoved) - count(packetDropped)))"
attr title "queue length"
attr unit pk
vector 196 singleMecHost.coreServer2.upf_mec.pppIf.queue queueBitLength:vector ETV
attr autoWarmupFilter false
attr interpolationmode sample-hold
attr recordingmode vector
attr source "warmup(atomic(constant0(packetPushEnded) + sum(packetLength(packetPushStarted)) - sum(packetLength(packetPulled)) - sum(packetLength(packetRemoved)) - sum(packetLength(packetDropped))))"
attr title "queue bit length"
attr unit b
vector 197 singleMecHost.coreServer2.upf_mec.pppIf.ppp transmissionState:vector ETV
attr interpolationmode sample-hold
attr recordingmode vector
attr source transmissionStateChanged
attr title "tx state"
vector 198 singleMecHost.coreServer2.upf_mec.udp passedUpPk:vector(count) ETV
attr interpolationmode none
attr recordingmode vector(count)
attr source packetSentToUpper
attr title "packets passed up, count"
vector 199 singleMecHost.coreServer2.upf_mec.udp droppedPkWrongPort:vector(count) ETV
attr interpolationmode none
attr recordingmode vector(count)
attr source packetDropReasonIsNoPortFound(packetDropped)
attr title "packets dropped (wrong port), count"
vector 200 singleMecHost.coreServer2.upf_mec.udp droppedPkBadChecksum:vector(count) ETV
attr interpolationmode none
attr recordingmode vector(count)
attr source packetDropReasonIsIncorrectlyReceived(packetDropped)
attr title "packets dropped (checksum error), count"
vector 201 singleMecHost.coreServer3.virtualisationInfrastructure.pppIf[0].queue queueLength:vector ETV
attr autoWarmupFilter false
attr interpolationmode sample-hold
attr recordingmode vector
attr source "warmup(atomic(constant0(packetPushEnded) + count(packetPushStarted) - count(packetPulled) - count(packetRemoved) - count(packetDropped)))"
attr title "queue length"
attr unit pk
vector 202 singleMecHost.coreServer3.virtualisationInfrastructure.pppIf[0].queue queueBitLength:vector ETV
attr autoWarmupFilter false
attr interpolationmode sample-hold
attr recordingmode vector
attr source "warmup(atomic(constant0(packetPushEnded) + sum(packetLength(packetPushStarted)) - sum(packetLength(packetPulled)) - sum(packetLength(packetRemoved)) - sum(packetLength(packetDropped))))"
attr title "queue bit length"
attr unit b
vector 203 singleMecHost.coreServer3.virtualisationInfrastructure.pppIf[0].ppp transmissionState:vector ETV
attr interpolationmode sample-hold
attr recordingmode vector
attr source transmissionStateChanged
attr title "tx state"
vector 204 singleMecHost.coreServer3.virtualisationInfrastructure.udp passedUpPk:vector(count) ETV
attr interpolationmode none
attr recordingmode vector(count)
attr source packetSentToUpper
attr title "packets passed up, count"
vector 205 singleMecHost.coreServer3.virtualisationInfrastructure.udp droppedPkWrongPort:vector(count) ETV
attr interpolationmode none
attr recordingmode vector(count)
attr source packetDropReasonIsNoPortFound(packetDropped)
attr title "packets dropped (wrong port), count"
vector 206 singleMecHost.coreServer3.virtualisationInfrastructure.udp droppedPkBadChecksum:vector(count) ETV
attr interpolationmode none
attr recordingmode vector(count)
attr source packetDropReasonIsIncorrectlyReceived(packetDropped)
attr title "packets dropped (checksum error), count"
vector 207 singleMecHost.coreServer3.upf_mec.ppp[0].queue queueLength:vector ETV
attr autoWarmupFilter false
attr interpolationmode sample-hold
attr recordingmode vector
attr source "warmup(atomic(constant0(packetPushEnded) + count(packetPushStarted) - count(packetPulled) - count(packetRemoved) - count(packetDropped)))"
attr title "queue length"
attr unit pk
vector 208 singleMecHost.coreServer3.upf_mec.ppp[0].queue queueBitLength:vector ETV
attr autoWarmupFilter false
attr interpolationmode sample-hold
attr recordingmode vector
attr source "warmup(atomic(constant0(packetPushEnded) + sum(packetLength(packetPushStarted)) - sum(packetLength(packetPulled)) - sum(packetLength(packetRemoved)) - sum(packetLength(packetDropped))))"
attr title "queue bit length"
attr unit b
vector 209 singleMecHost.coreServer3.upf_mec.ppp[0].ppp transmissionState:vector ETV
attr interpolationmode sample-hold
attr recordingmode vector
attr source transmissionStateChanged
attr title "tx state"
vector 210 singleMecHost.coreServer3.upf_mec.pppIf.queue queueLength:vector ETV
attr autoWarmupFilter false
attr interpolationmode sample-hold
attr recordingmode vector
attr source "warmup(atomic(constant0(packetPushEnded) + count(packetPushStarted) - count(packetPulled) - count(packetRemoved) - count(packetDropped)))"
attr title "queue length"
attr unit pk
vector 211 singleMecHost.coreServer3.upf_mec.pppIf.queue queueBitLength:vector ETV
attr autoWarmupFilter false
attr interpolationmode sample-hold
attr recordingmode vector
attr source "warmup(atomic(constant0(packetPushEnded) + sum(packetLength(packetPushStarted)) - sum(packetLength(packetPulled)) - sum(packetLength(packetRemoved)) - sum(packetLength(packetDropped))))"
attr title "queue bit length"
attr unit b
vector 212 singleMecHost.coreServer3.upf_mec.pppIf.ppp transmissionState:vector ETV
attr interpolationmode sample-hold
attr recordingmode vector
attr source transmissionStateChanged
attr title "tx state"
vector 213 singleMecHost.coreServer3.upf_mec.udp passedUpPk:vector(count) ETV
attr interpolationmode none
attr recordingmode vector(count)
attr source packetSentToUpper
attr title "packets passed up, count"
vector 214 singleMecHost.coreServer3.upf_mec.udp droppedPkWrongPort:vector(count) ETV
attr interpolationmode none
attr recordingmode vector(count)
attr source packetDropReasonIsNoPortFound(packetDropped)
attr title "packets dropped (wrong port), count"
vector 215 singleMecHost.coreServer3.upf_mec.udp droppedPkBadChecksum:vector(count) ETV
attr interpolationmode none
attr recordingmode vector(count)
attr source packetDropReasonIsIncorrectlyReceived(packetDropped)
attr title "packets dropped (checksum error), count"
vector 216 singleMecHost.coreServer4.virtualisationInfrastructure.pppIf[0].queue queueLength:vector ETV
attr autoWarmupFilter false
attr interpolationmode sample-hold
attr recordingmode vector
attr source "warmup(atomic(constant0(packetPushEnded) + count(packetPushStarted) - count(packetPulled) - count(packetRemoved) - count(packetDropped)))"
attr title "queue length"
attr unit pk
vector 217 singleMecHost.coreServer4.virtualisationInfrastructure.pppIf[0].queue queueBitLength:vector ETV
attr autoWarmupFilter false
attr interpolationmode sample-hold
attr recordingmode vector
attr source "warmup(atomic(constant0(packetPushEnded) + sum(packetLength(packetPushStarted)) - sum(packetLength(packetPulled)) - sum(packetLength(packetRemoved)) - sum(packetLength(packetDropped))))"
attr title "queue bit length"
attr unit b
vector 218 singleMecHost.coreServer4.virtualisationInfrastructure.pppIf[0].ppp transmissionState:vector ETV
attr interpolationmode sample-hold
attr recordingmode vector
attr source transmissionStateChanged
attr title "tx state"
vector 219 singleMecHost.coreServer4.virtualisationInfrastructure.udp passedUpPk:vector(count) ETV
attr interpolationmode none
attr recordingmode vector(count)
attr source packetSentToUpper
attr title "packets passed up, count"
vector 220 singleMecHost.coreServer4.virtualisationInfrastructure.udp droppedPkWrongPort:vector(count) ETV
attr interpolationmode none
attr recordingmode vector(count)
attr source packetDropReasonIsNoPortFound(packetDropped)
attr title "packets dropped (wrong port), count"
vector 221 singleMecHost.coreServer4.virtualisationInfrastructure.udp droppedPkBadChecksum:vector(count) ETV
attr interpolationmode none
attr recordingmode vector(count)
attr source packetDropReasonIsIncorrectlyReceived(packetDropped)
attr title "packets dropped (checksum error), count"
vector 222 singleMecHost.coreServer4.upf_mec.ppp[0].queue queueLength:vector ETV
attr autoWarmupFilter false
attr interpolationmode sample-hold
attr recordingmode vector
attr source "warmup(atomic(constant0(packetPushEnded) + count(packetPushStarted) - count(packetPulled) - count(packetRemoved) - count(packetDropped)))"
attr title "queue length"
attr unit pk
vector 223 singleMecHost.coreServer4.upf_mec.ppp[0].queue queueBitLength:vector ETV
attr autoWarmupFilter false
attr interpolationmode sample-hold
attr recordingmode vector
attr source "warmup(atomic(constant0(packetPushEnded) + sum(packetLength(packetPushStarted)) - sum(packetLength(packetPulled)) - sum(packetLength(packetRemoved)) - sum(packetLength(packetDropped))))"
attr title "queue bit length"
attr unit b
vector 224 singleMecHost.coreServer4.upf_mec.ppp[0].ppp transmissionState:vector ETV
attr interpolationmode sample-hold
attr recordingmode vector
attr source transmissionStateChanged
attr title "tx state"
vector 225 singleMecHost.coreServer4.upf_mec.pppIf.queue queueLength:vector ETV
attr autoWarmupFilter false
attr interpolationmode sample-hold
attr recordingmode vector
attr source "warmup(atomic(constant0(packetPushEnded) + count(packetPushStarted) - count(packetPulled) - count(packetRemoved) - count(packetDropped)))"
attr title "queue length"
attr unit pk
vector 226 singleMecHost.coreServer4.upf_mec.pppIf.queue queueBitLength:vector ETV
attr autoWarmupFilter false
attr interpolationmode sample-hold
attr recordingmode vector
attr source "warmup(atomic(constant0(packetPushEnded) + sum(packetLength(packetPushStarted)) - sum(packetLength(packetPulled)) - sum(packetLength(packetRemoved)) - sum(packetLength(packetDropped))))"
attr title "queue bit length"
attr unit b
vector 227 singleMecHost.coreServer4.upf_mec.pppIf.ppp transmissionState:vector ETV
attr interpolationmode sample-hold
attr recordingmode vector
attr source transmissionStateChanged
attr title "tx state"
vector 228 singleMecHost.coreServer4.upf_mec.udp passedUpPk:vector(count) ETV
attr interpolationmode none
attr recordingmode vector(count)
attr source packetSentToUpper
attr title "packets passed up, count"
vector 229 singleMecHost.coreServer4.upf_mec.udp droppedPkWrongPort:vector(count) ETV
attr interpolationmode none
attr recordingmode vector(count)
attr source packetDropReasonIsNoPortFound(packetDropped)
attr title "packets dropped (wrong port), count"
vector 230 singleMecHost.coreServer4.upf_mec.udp droppedPkBadChecksum:vector(count) ETV
attr interpolationmode none
attr recordingmode vector(count)
attr source packetDropReasonIsIncorrectlyReceived(packetDropped)
attr title "packets dropped (checksum error), count"
vector 231 singleMecHost.ue[0].cellularNic.phy servingCell:vector ETV
attr recordingmode vector
attr source servingCell
attr title "ID of the serving eNodeB for the UE"
attr unit ""
vector 232 singleMecHost.ue[0].cellularNic.nrChannelModel[0] distance:vector ETV
attr recordingmode vector
attr source distance
attr title "distance between UE and serving base station"
attr unit meters
vector 233 singleMecHost.ue[0].cellularNic.nrPhy servingCell:vector ETV
attr recordingmode vector
attr source servingCell
attr title "ID of the serving eNodeB for the UE"
attr unit ""
vector 234 singleMecHost.ue[1].cellularNic.phy servingCell:vector ETV
attr recordingmode vector
attr source servingCell
attr title "ID of the serving eNodeB for the UE"
attr unit ""
vector 235 singleMecHost.ue[1].cellularNic.nrChannelModel[0] distance:vector ETV
attr recordingmode vector
attr source distance
attr title "distance between UE and serving base station"
attr unit meters
vector 236 singleMecHost.ue[1].cellularNic.nrPhy servingCell:vector ETV
attr recordingmode vector
attr source servingCell
attr title "ID of the serving eNodeB for the UE"
attr unit ""
vector 237 singleMecHost.ue[2].cellularNic.phy servingCell:vector ETV
attr recordingmode vector
attr source servingCell
attr title "ID of the serving eNodeB for the UE"
attr unit ""
vector 238 singleMecHost.ue[2].cellularNic.nrChannelModel[0] distance:vector ETV
attr recordingmode vector
attr source distance
attr title "distance between UE and serving base station"
attr unit meters
vector 239 singleMecHost.ue[2].cellularNic.nrPhy servingCell:vector ETV
attr recordingmode vector
attr source servingCell
attr title "ID of the serving eNodeB for the UE"
attr unit ""
vector 240 singleMecHost.ue[0].tcp.conn-91 tcpRcvQueueBytes:vector ETV
attr interpolationmode sample-hold
attr recordingmode vector
vector 241 singleMecHost.ue[0].tcp.conn-91 rcvAdv:vector ETV
attr interpolationmode sample-hold
attr recordingmode vector
vector 242 singleMecHost.ue[0].tcp.conn-91 rcvWnd:vector ETV
attr interpolationmode sample-hold
attr recordingmode vector
[...]
534	92455	10.112	10
534	101382	11.112	10
535	29971	3.112	10
535	38899	4.112	10
535	47826	5.112	10
535	56754	6.112	10
535	65681	7.112	10
535	74609	8.112	10
535	83536	9.112	10
535	92465	10.112	10
535	101392	11.112	10
615	29650	3.1020008596	672
615	38578	4.1020008596	672
615	47505	5.1020008596	672
615	56433	6.1020008596	672
615	65360	7.1020008596	672
615	74288	8.1020008596	672
615	83215	9.1020008596	672
615	92144	10.1020008596	672
615	101071	11.1020008596	672
616	29650	3.1020008596	0
616	38578	4.1020008596	0
616	47505	5.1020008596	0
616	56433	6.1020008596	0
616	65360	7.1020008596	0
616	74288	8.1020008596	0
616	83215	9.1020008596	0
616	92144	10.1020008596	0
616	101071	11.1020008596	0
617	29650	3.1020008596	672
617	38578	4.1020008596	672
617	47505	5.1020008596	672
617	56433	6.1020008596	672
617	65360	7.1020008596	672
617	74288	8.1020008596	672
617	83215	9.1020008596	672
617	92144	10.1020008596	672
617	101071	11.1020008596	672
618	29650	3.1020008596	91
618	38578	4.1020008596	91
618	47505	5.1020008596	91
618	56433	6.1020008596	91
618	65360	7.1020008596	91
618	74288	8.1020008596	91
618	83215	9.1020008596	91
618	92144	10.1020008596	91
618	101071	11.1020008596	91
619	29660	3.1020009824	91
619	38588	4.1020009824	91
619	47515	5.1020009824	91
619	56443	6.1020009824	91
619	65370	7.1020009824	91
619	74298	8.1020009824	91
619	83225	9.1020009824	91
619	92154	10.1020009824	91
619	101081	11.1020009824	91
620	29660	3.1020009824	84
620	38588	4.1020009824	84
620	47515	5.1020009824	84
620	56443	6.1020009824	84
620	65370	7.1020009824	84
620	74298	8.1020009824	84
620	83225	9.1020009824	84
620	92154	10.1020009824	84
620	101081	11.1020009824	84
621	29662	3.1020009824	64
621	38590	4.1020009824	64
621	47517	5.1020009824	64
621	56445	6.1020009824	64
621	65372	7.1020009824	64
621	74300	8.1020009824	64
621	83227	9.1020009824	64
621	92156	10.1020009824	64
621	101083	11.1020009824	64
622	29664	3.1020009824	384
622	38592	4.1020009824	384
622	47519	5.1020009824	384
622	56447	6.1020009824	384
622	65374	7.1020009824	384
622	74302	8.1020009824	384
622	83229	9.1020009824	384
622	92158	10.1020009824	384
622	101085	11.1020009824	384
623	29664	3.1020009824	0
623	38592	4.1020009824	0
623	47519	5.1020009824	0
623	56447	6.1020009824	0
623	65374	7.1020009824	0
623	74302	8.1020009824	0
623	83229	9.1020009824	0
623	92158	10.1020009824	0
623	101085	11.1020009824	0
624	29664	3.1020009824	384
624	38592	4.1020009824	384
624	47519	5.1020009824	384
624	56447	6.1020009824	384
624	65374	7.1020009824	384
624	74302	8.1020009824	384
624	83229	9.1020009824	384
624	92158	10.1020009824	384
624	101085	11.1020009824	384
625	29664	3.1020009824	55
625	38592	4.1020009824	55
625	47519	5.1020009824	55
625	56447	6.1020009824	55
625	65374	7.1020009824	55
625	74302	8.1020009824	55
625	83229	9.1020009824	55
625	92158	10.1020009824	55
625	101085	11.1020009824	55
626	29658	3.1020009324	672
626	38586	4.1020009324	672
626	47513	5.1020009324	672
626	56441	6.1020009324	672
626	65368	7.1020009324	672
626	74296	8.1020009324	672
626	83223	9.1020009324	672
626	92152	10.1020009324	672
626	101079	11.1020009324	672
627	29658	3.1020009324	0
627	38586	4.1020009324	0
627	47513	5.1020009324	0
627	56441	6.1020009324	0
627	65368	7.1020009324	0
627	74296	8.1020009324	0
627	83223	9.1020009324	0
627	92152	10.1020009324	0
627	101079	11.1020009324	0
628	29658	3.1020009324	672
628	38586	4.1020009324	672
628	47513	5.1020009324	672
628	56441	6.1020009324	672
628	65368	7.1020009324	672
628	74296	8.1020009324	672
628	83223	9.1020009324	672
628	92152	10.1020009324	672
628	101079	11.1020009324	672
629	29658	3.1020009324	91
629	38586	4.1020009324	91
629	47513	5.1020009324	91
629	56441	6.1020009324	91
629	65368	7.1020009324	91
629	74296	8.1020009324	91
629	83223	9.1020009324	91
629	92152	10.1020009324	91
629	101079	11.1020009324	91
630	29675	3.1020010764	55
630	38603	4.1020010764	55
630	47530	5.1020010764	55
630	56458	6.1020010764	55
630	65385	7.1020010764	55
630	74313	8.1020010764	55
630	83240	9.1020010764	55
630	92169	10.1020010764	55
630	101096	11.1020010764	55
631	29675	3.1020010764	48
631	38603	4.1020010764	48
631	47530	5.1020010764	48
631	56458	6.1020010764	48
631	65385	7.1020010764	48
631	74313	8.1020010764	48
631	83240	9.1020010764	48
631	92169	10.1020010764	48
631	101096	11.1020010764	48
632	29677	3.1020010764	28
632	38605	4.1020010764	28
632	47532	5.1020010764	28
632	56460	6.1020010764	28
632	65387	7.1020010764	28
632	74315	8.1020010764	28
632	83242	9.1020010764	28
632	92171	10.1020010764	28
632	101098	11.1020010764	28
633	29670	3.1020010552	91
633	38598	4.1020010552	91
633	47525	5.1020010552	91
633	56453	6.1020010552	91
633	65380	7.1020010552	91
633	74308	8.1020010552	91
633	83235	9.1020010552	91
633	92164	10.1020010552	91
633	101091	11.1020010552	91
634	29670	3.1020010552	84
634	38598	4.1020010552	84
634	47525	5.1020010552	84
634	56453	6.1020010552	84
634	65380	7.1020010552	84
634	74308	8.1020010552	84
634	83235	9.1020010552	84
634	92164	10.1020010552	84
634	101091	11.1020010552	84
635	29672	3.1020010552	64
635	38600	4.1020010552	64
635	47527	5.1020010552	64
635	56455	6.1020010552	64
635	65382	7.1020010552	64
635	74310	8.1020010552	64
635	83237	9.1020010552	64
635	92166	10.1020010552	64
635	101093	11.1020010552	64
636	29674	3.1020010552	384
636	38602	4.1020010552	384
636	47529	5.1020010552	384
636	56457	6.1020010552	384
636	65384	7.1020010552	384
636	74312	8.1020010552	384
636	83239	9.1020010552	384
636	92168	10.1020010552	384
636	101095	11.1020010552	384
637	29674	3.1020010552	0
637	38602	4.1020010552	0
637	47529	5.1020010552	0
637	56457	6.1020010552	0
637	65384	7.1020010552	0
637	74312	8.1020010552	0
637	83239	9.1020010552	0
637	92168	10.1020010552	0
637	101095	11.1020010552	0
638	29674	3.1020010552	384
638	38602	4.1020010552	384
638	47529	5.1020010552	384
638	56457	6.1020010552	384
638	65384	7.1020010552	384
638	74312	8.1020010552	384
638	83239	9.1020010552	384
638	92168	10.1020010552	384
638	101095	11.1020010552	384
639	29674	3.1020010552	55
639	38602	4.1020010552	55
639	47529	5.1020010552	55
639	56457	6.1020010552	55
639	65384	7.1020010552	55
639	74312	8.1020010552	55
639	83239	9.1020010552	55
639	92168	10.1020010552	55
639	101095	11.1020010552	55
640	29668	3.1020010052	672
640	38596	4.1020010052	672
640	47523	5.1020010052	672
640	56451	6.1020010052	672
640	65378	7.1020010052	672
640	74306	8.1020010052	672
640	83233	9.1020010052	672
640	92162	10.1020010052	672
640	101089	11.1020010052	672
641	29668	3.1020010052	0
641	38596	4.1020010052	0
641	47523	5.1020010052	0
641	56451	6.1020010052	0
641	65378	7.1020010052	0
641	74306	8.1020010052	0
641	83233	9.1020010052	0
641	92162	10.1020010052	0
641	101089	11.1020010052	0
642	29668	3.1020010052	672
642	38596	4.1020010052	672
642	47523	5.1020010052	672
642	56451	6.1020010052	672
642	65378	7.1020010052	672
642	74306	8.1020010052	672
642	83233	9.1020010052	672
642	92162	10.1020010052	672
642	101089	11.1020010052	672
643	29668	3.1020010052	91
643	38596	4.1020010052	91
643	47523	5.1020010052	91
643	56451	6.1020010052	91
643	65378	7.1020010052	91
643	74306	8.1020010052	91
643	83233	9.1020010052	91
643	92162	10.1020010052	91
643	101089	11.1020010052	91
644	29686	3.1020011492	55
644	38614	4.1020011492	55
644	47541	5.1020011492	55
644	56469	6.1020011492	55
644	65396	7.1020011492	55
644	74324	8.1020011492	55
644	83251	9.1020011492	55
644	92180	10.1020011492	55
644	101107	11.1020011492	55
645	29686	3.1020011492	48
645	38614	4.1020011492	48
645	47541	5.1020011492	48
645	56469	6.1020011492	48
645	65396	7.1020011492	48
645	74324	8.1020011492	48
645	83251	9.1020011492	48
645	92180	10.1020011492	48
645	101107	11.1020011492	48
646	29688	3.1020011492	28
646	38616	4.1020011492	28
646	47543	5.1020011492	28
646	56471	6.1020011492	28
646	65398	7.1020011492	28
646	74326	8.1020011492	28
646	83253	9.1020011492	28
646	92182	10.1020011492	28
646	101109	11.1020011492	28
647	29681	3.102001128	91
647	38609	4.102001128	91
647	47536	5.102001128	91
647	56464	6.102001128	91
647	65391	7.102001128	91
647	74319	8.102001128	91
647	83246	9.102001128	91
647	92175	10.102001128	91
647	101102	11.102001128	91
648	29681	3.102001128	84
648	38609	4.102001128	84
648	47536	5.102001128	84
648	56464	6.102001128	84
648	65391	7.102001128	84
648	74319	8.102001128	84
648	83246	9.102001128	84
648	92175	10.102001128	84
648	101102	11.102001128	84
649	29683	3.102001128	64
649	38611	4.102001128	64
649	47538	5.102001128	64
649	56466	6.102001128	64
649	65393	7.102001128	64
649	74321	8.102001128	64
649	83248	9.102001128	64
649	92177	10.102001128	64
649	101104	11.102001128	64
650	29685	3.102001128	384
650	38613	4.102001128	384
650	47540	5.102001128	384
650	56468	6.102001128	384
650	65395	7.102001128	384
650	74323	8.102001128	384
650	83250	9.102001128	384
650	92179	10.102001128	384
650	101106	11.102001128	384
651	29685	3.102001128	0
651	38613	4.102001128	0
651	47540	5.102001128	0
651	56468	6.102001128	0
651	65395	7.102001128	0
651	74323	8.102001128	0
651	83250	9.102001128	0
651	92179	10.102001128	0
651	101106	11.102001128	0
652	29685	3.102001128	384
652	38613	4.102001128	384
652	47540	5.102001128	384
652	56468	6.102001128	384
652	65395	7.102001128	384
652	74323	8.102001128	384
652	83250	9.102001128	384
652	92179	10.102001128	384
652	101106	11.102001128	384
653	29685	3.102001128	55
653	38613	4.102001128	55
653	47540	5.102001128	55
653	56468	6.102001128	55
653	65395	7.102001128	55
653	74323	8.102001128	55
653	83250	9.102001128	55
653	92179	10.102001128	55
653	101106	11.102001128	55
654	29691	3.102001222	55
654	38619	4.102001222	55
654	47546	5.102001222	55
654	56474	6.102001222	55
654	65401	7.102001222	55
654	74329	8.102001222	55
654	83256	9.102001222	55
654	92185	10.102001222	55
654	101112	11.102001222	55
655	29691	3.102001222	48
655	38619	4.102001222	48
655	47546	5.102001222	48
655	56474	6.102001222	48
655	65401	7.102001222	48
655	74329	8.102001222	48
655	83256	9.102001222	48
655	92185	10.102001222	48
655	101112	11.102001222	48
656	29693	3.102001222	28
656	38621	4.102001222	28
656	47548	5.102001222	28
656	56476	6.102001222	28
656	65403	7.102001222	28
656	74331	8.102001222	28
656	83258	9.102001222	28
656	92187	10.102001222	28
656	101114	11.102001222	28
657	29742	3.1070010764	10
657	38670	4.1070010764	10
657	47597	5.1070010764	10
657	56525	6.1070010764	10
657	65452	7.1070010764	10
657	74380	8.1070010764	10
657	83307	9.1070010764	10
657	92236	10.1070010764	10
657	101163	11.1070010764	10
658	29744	3.1070010764	240
658	38672	4.1070010764	240
658	47599	5.1070010764	240
658	56527	6.1070010764	240
658	65454	7.1070010764	240
658	74382	8.1070010764	240
658	83309	9.1070010764	240
658	92238	10.1070010764	240
658	101165	11.1070010764	240
659	29744	3.1070010764	0
659	38672	4.1070010764	0
659	47599	5.1070010764	0
659	56527	6.1070010764	0
659	65454	7.1070010764	0
659	74382	8.1070010764	0
659	83309	9.1070010764	0
659	92238	10.1070010764	0
659	101165	11.1070010764	0
660	29744	3.1070010764	240
660	38672	4.1070010764	240
660	47599	5.1070010764	240
660	56527	6.1070010764	240
660	65454	7.1070010764	240
660	74382	8.1070010764	240
660	83309	9.1070010764	240
660	92238	10.1070010764	240
660	101165	11.1070010764	240
661	29744	3.1070010764	37
661	38672	4.1070010764	37
661	47599	5.1070010764	37
661	56527	6.1070010764	37
661	65454	7.1070010764	37
661	74382	8.1070010764	37
661	83309	9.1070010764	37
661	92238	10.1070010764	37
661	101165	11.1070010764	37
662	29750	3.107001156	37
662	38678	4.107001156	37
662	47605	5.107001156	37
662	56533	6.107001156	37
662	65460	7.107001156	37
662	74388	8.107001156	37
662	83315	9.107001156	37
662	92244	10.107001156	37
662	101171	11.107001156	37
663	29750	3.107001156	30
663	38678	4.107001156	30
663	47605	5.107001156	30
663	56533	6.107001156	30
663	65460	7.107001156	30
663	74388	8.107001156	30
663	83315	9.107001156	30
663	92244	10.107001156	30
663	101171	11.107001156	30
664	29753	3.107001156	46
664	38681	4.107001156	46
664	47608	5.107001156	46
664	56536	6.107001156	46
664	65463	7.107001156	46
664	74391	8.107001156	46
664	83318	9.107001156	46
664	92247	10.107001156	46
664	101174	11.107001156	46
665	29755	3.107001156	528
665	38683	4.107001156	528
665	47610	5.107001156	528
665	56538	6.107001156	528
665	65465	7.107001156	528
665	74393	8.107001156	528
665	83320	9.107001156	528
665	92249	10.107001156	528
665	101176	11.107001156	528
666	29755	3.107001156	0
666	38683	4.107001156	0
666	47610	5.107001156	0
666	56538	6.107001156	0
666	65465	7.107001156	0
666	74393	8.107001156	0
666	83320	9.107001156	0
666	92249	10.107001156	0
666	101176	11.107001156	0
667	29755	3.107001156	528
667	38683	4.107001156	528
667	47610	5.107001156	528
667	56538	6.107001156	528
667	65465	7.107001156	528
667	74393	8.107001156	528
667	83320	9.107001156	528
667	92249	10.107001156	528
667	101176	11.107001156	528
668	29755	3.107001156	73
668	38683	4.107001156	73
668	47610	5.107001156	73
668	56538	6.107001156	73
668	65465	7.107001156	73
668	74393	8.107001156	73
668	83320	9.107001156	73
668	92249	10.107001156	73
668	101176	11.107001156	73
669	29747	3.1070011492	10
669	38675	4.1070011492	10
669	47602	5.1070011492	10
669	56530	6.1070011492	10
669	65457	7.1070011492	10
669	74385	8.1070011492	10
669	83312	9.1070011492	10
669	92241	10.1070011492	10
669	101168	11.1070011492	10
670	29749	3.1070011492	240
670	38677	4.1070011492	240
670	47604	5.1070011492	240
670	56532	6.1070011492	240
670	65459	7.1070011492	240
670	74387	8.1070011492	240
670	83314	9.1070011492	240
670	92243	10.1070011492	240
670	101170	11.1070011492	240
671	29749	3.1070011492	0
671	38677	4.1070011492	0
671	47604	5.1070011492	0
671	56532	6.1070011492	0
671	65459	7.1070011492	0
671	74387	8.1070011492	0
671	83314	9.1070011492	0
671	92243	10.1070011492	0
671	101170	11.1070011492	0
672	29749	3.1070011492	240
672	38677	4.1070011492	240
672	47604	5.1070011492	240
672	56532	6.1070011492	240
672	65459	7.1070011492	240
672	74387	8.1070011492	240
672	83314	9.1070011492	240
672	92243	10.1070011492	240
672	101170	11.1070011492	240
673	29749	3.1070011492	37
673	38677	4.1070011492	37
673	47604	5.1070011492	37
673	56532	6.1070011492	37
673	65459	7.1070011492	37
673	74387	8.1070011492	37
673	83314	9.1070011492	37
673	92243	10.1070011492	37
673	101170	11.1070011492	37
674	29769	3.1070012644	73
674	38697	4.1070012644	73
674	47624	5.1070012644	73
674	56552	6.1070012644	73
674	65479	7.1070012644	73
674	74407	8.1070012644	73
674	83334	9.1070012644	73
674	92263	10.1070012644	73
674	101190	11.1070012644	73
675	29769	3.1070012644	66
675	38697	4.1070012644	66
675	47624	5.1070012644	66
675	56552	6.1070012644	66
675	65479	7.1070012644	66
675	74407	8.1070012644	66
675	83334	9.1070012644	66
675	92263	10.1070012644	66
675	101190	11.1070012644	66
676	29762	3.1070012288	37
676	38690	4.1070012288	37
676	47617	5.1070012288	37
676	56545	6.1070012288	37
676	65472	7.1070012288	37
676	74400	8.1070012288	37
676	83327	9.1070012288	37
676	92256	10.1070012288	37
676	101183	11.1070012288	37
677	29762	3.1070012288	30
677	38690	4.1070012288	30
677	47617	5.1070012288	30
677	56545	6.1070012288	30
677	65472	7.1070012288	30
677	74400	8.1070012288	30
677	83327	9.1070012288	30
677	92256	10.1070012288	30
677	101183	11.1070012288	30
678	29765	3.1070012288	46
678	38693	4.1070012288	46
678	47620	5.1070012288	46
678	56548	6.1070012288	46
678	65475	7.1070012288	46
678	74403	8.1070012288	46
678	83330	9.1070012288	46
678	92259	10.1070012288	46
678	101186	11.1070012288	46
679	29767	3.1070012288	528
679	38695	4.1070012288	528
679	47622	5.1070012288	528
679	56550	6.1070012288	528
679	65477	7.1070012288	528
679	74405	8.1070012288	528
679	83332	9.1070012288	528
679	92261	10.1070012288	528
679	101188	11.1070012288	528
680	29767	3.1070012288	0
680	38695	4.1070012288	0
680	47622	5.1070012288	0
680	56550	6.1070012288	0
680	65477	7.1070012288	0
680	74405	8.1070012288	0
680	83332	9.1070012288	0
680	92261	10.1070012288	0
680	101188	11.1070012288	0
681	29767	3.1070012288	528
681	38695	4.1070012288	528
681	47622	5.1070012288	528
681	56550	6.1070012288	528
681	65477	7.1070012288	528
681	74405	8.1070012288	528
681	83332	9.1070012288	528
681	92261	10.1070012288	528
681	101188	11.1070012288	528
682	29767	3.1070012288	73
682	38695	4.1070012288	73
682	47622	5.1070012288	73
682	56550	6.1070012288	73
682	65477	7.1070012288	73
682	74405	8.1070012288	73
682	83332	9.1070012288	73
682	92261	10.1070012288	73
682	101188	11.1070012288	73
683	29759	3.107001222	10
683	38687	4.107001222	10
683	47614	5.107001222	10
683	56542	6.107001222	10
683	65469	7.107001222	10
683	74397	8.107001222	10
683	83324	9.107001222	10
683	92253	10.107001222	10
683	101180	11.107001222	10
684	29761	3.107001222	240
684	38689	4.107001222	240
684	47616	5.107001222	240
684	56544	6.107001222	240
684	65471	7.107001222	240
684	74399	8.107001222	240
684	83326	9.107001222	240
684	92255	10.107001222	240
684	101182	11.107001222	240
685	29761	3.107001222	0
685	38689	4.107001222	0
685	47616	5.107001222	0
685	56544	6.107001222	0
685	65471	7.107001222	0
685	74399	8.107001222	0
685	83326	9.107001222	0
685	92255	10.107001222	0
685	101182	11.107001222	0
686	29761	3.107001222	240
686	38689	4.107001222	240
686	47616	5.107001222	240
686	56544	6.107001222	240
686	65471	7.107001222	240
686	74399	8.107001222	240
686	83326	9.107001222	240
686	92255	10.107001222	240
686	101182	11.107001222	240
687	29761	3.107001222	37
687	38689	4.107001222	37
687	47616	5.107001222	37
687	56544	6.107001222	37
687	65471	7.107001222	37
687	74399	8.107001222	37
687	83326	9.107001222	37
687	92255	10.107001222	37
687	101182	11.107001222	37
688	29780	3.1070013372	73
688	38708	4.1070013372	73
688	47635	5.1070013372	73
688	56563	6.1070013372	73
688	65490	7.1070013372	73
688	74418	8.1070013372	73
688	83345	9.1070013372	73
688	92274	10.1070013372	73
688	101201	11.1070013372	73
689	29780	3.1070013372	66
689	38708	4.1070013372	66
689	47635	5.1070013372	66
689	56563	6.1070013372	66
689	65490	7.1070013372	66
689	74418	8.1070013372	66
689	83345	9.1070013372	66
689	92274	10.1070013372	66
689	101201	11.1070013372	66
690	29773	3.1070013016	37
690	38701	4.1070013016	37
690	47628	5.1070013016	37
690	56556	6.1070013016	37
690	65483	7.1070013016	37
690	74411	8.1070013016	37
690	83338	9.1070013016	37
690	92267	10.1070013016	37
690	101194	11.1070013016	37
691	29773	3.1070013016	30
691	38701	4.1070013016	30
691	47628	5.1070013016	30
691	56556	6.1070013016	30
691	65483	7.1070013016	30
691	74411	8.1070013016	30
691	83338	9.1070013016	30
691	92267	10.1070013016	30
691	101194	11.1070013016	30
692	29776	3.1070013016	46
692	38704	4.1070013016	46
692	47631	5.1070013016	46
692	56559	6.1070013016	46
692	65486	7.1070013016	46
692	74414	8.1070013016	46
692	83341	9.1070013016	46
692	92270	10.1070013016	46
692	101197	11.1070013016	46
693	29778	3.1070013016	528
693	38706	4.1070013016	528
693	47633	5.1070013016	528
693	56561	6.1070013016	528
693	65488	7.1070013016	528
693	74416	8.1070013016	528
693	83343	9.1070013016	528
693	92272	10.1070013016	528
693	101199	11.1070013016	528
694	29778	3.1070013016	0
694	38706	4.1070013016	0
694	47633	5.1070013016	0
694	56561	6.1070013016	0
694	65488	7.1070013016	0
694	74416	8.1070013016	0
694	83343	9.1070013016	0
694	92272	10.1070013016	0
694	101199	11.1070013016	0
695	29778	3.1070013016	528
695	38706	4.1070013016	528
695	47633	5.1070013016	528
695	56561	6.1070013016	528
695	65488	7.1070013016	528
695	74416	8.1070013016	528
695	83343	9.1070013016	528
695	92272	10.1070013016	528
695	101199	11.1070013016	528
696	29778	3.1070013016	73
696	38706	4.1070013016	73
696	47633	5.1070013016	73
696	56561	6.1070013016	73
696	65488	7.1070013016	73
696	74416	8.1070013016	73
696	83343	9.1070013016	73
696	92272	10.1070013016	73
696	101199	11.1070013016	73
697	29788	3.10700141	73
697	38716	4.10700141	73
697	47643	5.10700141	73
697	56571	6.10700141	73
697	65498	7.10700141	73
697	74426	8.10700141	73
697	83353	9.10700141	73
697	92282	10.10700141	73
697	101209	11.10700141	73
698	29788	3.10700141	66
698	38716	4.10700141	66
698	47643	5.10700141	66
698	56571	6.10700141	66
698	65498	7.10700141	66
698	74426	8.10700141	66
698	83353	9.10700141	66
698	92282	10.10700141	66
698	101209	11.10700141	66
